version 2
run General-0-20210517-19:15:54-524
attr configname General
attr datetime 20210517-19:15:54
attr experiment General
attr inifile Final_Project_4.ini
attr iterationvars ""
attr iterationvarsf ""
attr measurement ""
attr network Network3
attr processid 524
attr repetition 0
attr replication #0
attr resultdir results
attr runnumber 0
attr seedset 245
param **.SourceA.interArrivalTime exponential(163.9s)
param **.SourceB.interArrivalTime exponential(159.7s)
param **.SourceC.interArrivalTime exponential(555.6s)
param **.server.serviceTime 1500s
param **.server1.serviceTime 1500s
param **.server2.serviceTime 1500s
param **.server3.serviceTime 1500s
param **.SourceA.jobType 0
param **.SourceB.jobType 1
param **.SourceC.jobType 2
param **.SourceA.startTime 0s
param **.SourceA.stopTime 201599s
param **.SourceB.startTime 201600s
param **.SourceB.stopTime 604799s
param **.SourceC.startTime 604800s
param **.SourceC.stopTime 1353599s

vector 0 Network3.passiveQueue queueLength:vector ETV
attr interpolationmode sample-hold
attr title "queue length, vector"
vector 1 Network3.passiveQueue1 queueLength:vector ETV
attr interpolationmode sample-hold
attr title "queue length, vector"
vector 2 Network3.passiveQueue2 queueLength:vector ETV
attr interpolationmode sample-hold
attr title "queue length, vector"
vector 3 Network3.final_Project_4_SinkA lifeTime:vector ETV
attr interpolationmode none
attr title "lifetime of arrived jobs, vector"
attr unit s
vector 4 Network3.final_Project_4_SinkB lifeTime:vector ETV
attr interpolationmode none
attr title "lifetime of arrived jobs, vector"
attr unit s
vector 5 Network3.final_Project_4_SinkC lifeTime:vector ETV
attr interpolationmode none
attr title "lifetime of arrived jobs, vector"
attr unit s
0	0	0	0
0	14	567.761654248691	1
0	16	622.120344627959	2
0	18	1050.248395929752	3
0	20	1077.877748750985	4
0	22	1357.297142186618	5
0	23	1500	4
0	28	1514.508614005294	5
0	30	1564.934683303095	6
0	31	1632.68367582523	5
0	35	1692.133998635158	4
0	39	1708.662718772559	3
0	44	1872.390331452547	4
0	46	2012.692138451185	5
0	48	2248.186981096061	6
0	50	2565.091307582578	7
0	52	2657.832732521653	8
0	54	2666.419421836238	9
0	56	2703.0113379367	10
0	58	2952.121935259602	11
0	60	2970.897369875694	12
0	61	3000	11
0	66	3083.221405549193	12
0	67	3132.68367582523	11
0	71	3192.133998635158	10
0	75	3208.662718772559	9
0	80	3605.208896148263	10
0	82	3606.152554769519	11
0	84	3652.194717943745	12
0	86	3868.489672478919	13
0	88	3924.456015254324	14
0	90	3970.79015168233	15
0	92	4028.892628105281	16
0	94	4324.485397242959	17
0	95	4500	16
0	100	4580.600466927207	17
0	101	4632.68367582523	16
0	106	4676.750355139584	17
0	107	4692.133998635158	16
0	111	4708.662718772559	15
0	116	4746.250222226065	16
0	118	4782.338390398288	17
0	120	4933.099967102858	18
0	122	5009.926463101474	19
0	124	5701.006581247446	20
0	126	5874.183626859724	21
0	128	5959.36434574387	22
0	129	6000	21
0	133	6132.68367582523	20
0	138	6160.918466921851	21
0	139	6192.133998635158	20
0	143	6208.662718772559	19
0	148	6553.867017010332	20
0	150	6633.639128511166	21
0	152	7397.268970379731	22
0	153	7500	21
0	158	7630.48656937491	22
0	159	7632.68367582523	21
0	164	7660.551929863002	22
0	165	7692.133998635158	21
0	169	7708.662718772559	20
0	174	7739.035144548226	21
0	176	7813.623965593919	22
0	178	7856.106652810337	23
0	180	8178.80257131281	24
0	182	8298.361416232972	25
0	184	8370.932778624842	26
0	186	8401.089742674758	27
0	188	8439.308663004926	28
0	190	8472.043787036255	29
0	192	8484.056102283615	30
0	194	8484.253254878446	31
0	196	8551.553407129368	32
0	197	9000	31
0	202	9043.013294046557	32
0	203	9132.68367582523	31
0	208	9147.341678627866	32
0	209	9192.133998635158	31
0	213	9208.662718772559	30
0	218	9284.571348250602	31
0	220	9534.850109981014	32
0	222	9654.017911806642	33
0	224	9820.029227444611	34
0	226	9935.480242742755	35
0	228	9988.95502328503	36
0	230	10324.000826627674	37
0	232	10326.216999995782	38
0	234	10345.934536861677	39
0	236	10349.235020743449	40
0	238	10419.520006461579	41
0	239	10500	40
0	243	10632.68367582523	39
0	247	10692.133998635158	38
0	251	10708.662718772559	37
0	256	10758.787884972724	38
0	258	10760.200466285517	39
0	260	10789.377609717882	40
0	262	11172.996644811648	41
0	264	11386.493322325365	42
0	266	11408.123422628976	43
0	268	11806.924821162427	44
0	269	12000	43
0	273	12132.68367582523	42
0	277	12192.133998635158	41
0	281	12208.662718772559	40
0	286	12968.665909404475	41
0	287	13500	40
0	291	13632.68367582523	39
0	295	13692.133998635158	38
0	299	13708.662718772559	37
0	304	13996.201958851179	38
0	306	14616.087999001856	39
0	308	14807.859430992004	40
0	310	14887.365516249449	41
0	311	15000	40
0	316	15003.542155215767	41
0	317	15132.68367582523	40
0	321	15192.133998635158	39
0	325	15208.662718772559	38
0	330	15243.457625803351	39
0	332	15767.419651030784	40
0	334	15842.581552849812	41
0	336	15886.2744117367	42
0	338	16362.211851406696	43
0	339	16500	42
0	344	16566.320272419939	43
0	345	16632.68367582523	42
0	350	16683.763848011411	43
0	351	16692.133998635158	42
0	355	16708.662718772559	41
0	360	16836.276857048581	42
0	362	16863.867760088266	43
0	364	16865.550314660307	44
0	366	16899.268280055208	45
0	368	16910.419372870021	46
0	370	17360.751229605235	47
0	372	17530.149698045369	48
0	374	17546.326133487277	49
0	376	17732.324160565575	50
0	378	17789.177132288423	51
0	380	17844.53266944076	52
0	382	17849.175382757901	53
0	383	18000	52
0	388	18051.84732006533	53
0	390	18061.841408009829	54
0	392	18072.366205040961	55
0	393	18132.68367582523	54
0	397	18192.133998635158	53
0	401	18208.662718772559	52
0	406	18532.299685557746	53
0	408	18959.592572321124	54
0	410	18981.315812683473	55
0	412	19126.535137558196	56
0	414	19248.334980233186	57
0	416	19391.998419745414	58
0	417	19500	57
0	421	19632.68367582523	56
0	425	19692.133998635158	55
0	429	19708.662718772559	54
0	434	19789.51532305826	55
0	436	19960.162681578855	56
0	438	20054.117842747077	57
0	440	20235.629189665373	58
0	442	20427.447088290142	59
0	444	20458.076325422268	60
0	446	20713.710556210745	61
0	448	20732.056163233926	62
0	450	20827.078663327769	63
0	451	21000	62
0	456	21091.696216166052	63
0	458	21116.523605145501	64
0	460	21119.379563066215	65
0	461	21132.68367582523	64
0	466	21133.353563529684	65
0	468	21138.47030329165	66
0	469	21192.133998635158	65
0	473	21208.662718772559	64
0	478	21217.598268914024	65
0	480	21443.768766781743	66
0	482	21497.320613386918	67
0	484	21767.188197044656	68
0	486	22349.603161966851	69
0	488	22469.367061618022	70
0	489	22500	69
0	493	22632.68367582523	68
0	497	22692.133998635158	67
0	501	22708.662718772559	66
0	506	22783.969665648658	67
0	508	22879.714380378006	68
0	510	23028.597775662797	69
0	512	23452.845326073738	70
0	514	23518.398932429311	71
0	516	23595.667675074606	72
0	518	23599.135056568919	73
0	519	24000	72
0	524	24084.624041231083	73
0	525	24132.68367582523	72
0	529	24192.133998635158	71
0	533	24208.662718772559	70
0	538	24466.457744923579	71
0	540	24702.19472406616	72
0	542	24847.862658493956	73
0	544	24929.611191443856	74
0	546	24991.056853054102	75
0	548	25087.507493603175	76
0	550	25381.511870232671	77
0	552	25408.276648147438	78
0	553	25500	77
0	558	25583.807456326541	78
0	559	25632.68367582523	77
0	563	25692.133998635158	76
0	567	25708.662718772559	75
0	572	25862.378289719262	76
0	574	25956.75044640725	77
0	576	25962.609364498257	78
0	578	26280.564351503728	79
0	580	26280.827802877829	80
0	582	26429.923636748194	81
0	584	26632.893967864406	82
0	586	26747.589022206674	83
0	587	27000	82
0	592	27074.765915925857	83
0	593	27132.68367582523	82
0	598	27137.957615451395	83
0	599	27192.133998635158	82
0	603	27208.662718772559	81
0	608	27323.349486550529	82
0	610	27413.777279988675	83
0	612	27433.184291140164	84
0	614	27468.536253822602	85
0	616	27530.262936984673	86
0	618	27597.519458054942	87
0	620	27747.306047531855	88
0	622	27773.326030418477	89
0	624	28013.573984186336	90
0	626	28027.811798275721	91
0	628	28149.450990903481	92
0	630	28155.483684735683	93
0	632	28198.365373956419	94
0	633	28500	93
0	638	28505.726311287031	94
0	640	28561.754241503423	95
0	642	28625.173015875566	96
0	643	28632.68367582523	95
0	647	28692.133998635158	94
0	651	28708.662718772559	93
0	656	28831.841014893533	94
0	658	29037.164360020173	95
0	660	29176.184735715286	96
0	662	29396.895587014467	97
0	664	29582.582551801623	98
0	666	29652.318297675505	99
0	667	30000	98
0	671	30132.68367582523	97
0	676	30184.342217137505	98
0	677	30192.133998635158	97
0	681	30208.662718772559	96
0	686	30404.642017113676	97
0	688	30502.55316282908	98
0	690	30753.363126292366	99
0	692	30846.226586705643	100
0	693	31500	99
0	698	31549.818783248679	100
0	699	31632.68367582523	99
0	704	31655.631273969196	100
0	706	31659.176826321645	101
0	708	31679.926663593427	102
0	709	31692.133998635158	101
0	714	31702.437653316583	102
0	715	31708.662718772559	101
0	720	31770.22599812399	102
0	722	32115.742678385099	103
0	724	32133.721001565286	104
0	726	32248.41750086172	105
0	728	32384.614400431142	106
0	730	32726.085696373968	107
0	732	32740.413381200409	108
0	734	32855.853511234087	109
0	735	33000	108
0	740	33030.797411973071	109
0	741	33132.68367582523	108
0	745	33192.133998635158	107
0	750	33197.712605238145	108
0	751	33208.662718772559	107
0	756	34331.789049154995	108
0	758	34485.611863793794	109
0	759	34500	108
0	763	34632.68367582523	107
0	767	34692.133998635158	106
0	771	34708.662718772559	105
0	776	34719.282359099629	106
0	778	34788.736385736984	107
0	780	35298.147991865158	108
0	782	35466.783843153861	109
0	784	35556.39981980444	110
0	786	35619.345242484098	111
0	788	35804.094567308167	112
0	790	35934.710687499681	113
0	791	36000	112
0	796	36064.067522357605	113
0	797	36132.68367582523	112
0	802	36150.934682496892	113
0	803	36192.133998635158	112
0	807	36208.662718772559	111
0	812	36212.807354689879	112
0	814	36293.507658407278	113
0	816	36310.644761131779	114
0	818	36445.040639156798	115
0	820	36477.807533154867	116
0	822	36599.151861496236	117
0	824	36788.274843122465	118
0	826	37182.149776537149	119
0	828	37442.420054132035	120
0	829	37500	119
0	834	37550.986895215072	120
0	836	37628.968068259846	121
0	837	37632.68367582523	120
0	841	37692.133998635158	119
0	845	37708.662718772559	118
0	850	37798.337012531245	119
0	852	37810.467448890766	120
0	854	37883.281074802715	121
0	856	38157.37200381257	122
0	858	38290.241356185358	123
0	860	38293.096909674163	124
0	862	38576.620822203643	125
0	864	38679.935217451447	126
0	866	38684.976750810118	127
0	868	38808.013105270615	128
0	870	38858.080962295895	129
0	871	39000	128
0	876	39128.622969859184	129
0	877	39132.68367582523	128
0	882	39168.990991825037	129
0	883	39192.133998635158	128
0	887	39208.662718772559	127
0	892	39818.877549145517	128
0	894	39833.709422961018	129
0	895	40500	128
0	900	40509.325388316371	129
0	902	40569.82427598334	130
0	904	40584.38793906406	131
0	906	40613.534408010209	132
0	907	40632.68367582523	131
0	911	40692.133998635158	130
0	915	40708.662718772559	129
0	920	40759.966585268962	130
0	922	40892.762253559828	131
0	924	40984.781934365038	132
0	925	42000	131
0	930	42035.641151868949	132
0	931	42132.68367582523	131
0	935	42192.133998635158	130
0	939	42208.662718772559	129
0	944	42214.223087250747	130
0	946	42342.502600568364	131
0	948	42490.367109036485	132
0	950	42551.322900306695	133
0	952	42567.06728248077	134
0	954	42594.562751637489	135
0	956	42773.836924261498	136
0	958	42943.094812735497	137
0	960	43095.772352795503	138
0	962	43097.651765834726	139
0	963	43500	138
0	967	43632.68367582523	137
0	971	43692.133998635158	136
0	975	43708.662718772559	135
0	980	43738.723531662548	136
0	982	44043.855193904373	137
0	984	44176.093412730092	138
0	986	44418.729312881619	139
0	988	44439.697707497901	140
0	990	44730.660222648133	141
0	992	44760.040368766032	142
0	994	44914.924970574135	143
0	995	45000	142
0	1000	45098.327112007956	143
0	1001	45132.68367582523	142
0	1005	45192.133998635158	141
0	1009	45208.662718772559	140
0	1014	45275.110062927779	141
0	1016	45552.640229375531	142
0	1018	45784.667485040449	143
0	1020	45957.914364435926	144
0	1022	46130.459509899263	145
0	1024	46166.185187686105	146
0	1026	46191.056429454587	147
0	1028	46325.250356571275	148
0	1029	46500	147
0	1033	46632.68367582523	146
0	1037	46692.133998635158	145
0	1041	46708.662718772559	144
0	1046	46729.426551475465	145
0	1048	47006.782973694767	146
0	1050	47009.928825900948	147
0	1052	47074.506350592927	148
0	1054	47237.759214163822	149
0	1056	47583.133983810297	150
0	1058	47970.677355711228	151
0	1060	47979.742944926385	152
0	1061	48000	151
0	1065	48132.68367582523	150
0	1070	48174.69019682991	151
0	1072	48188.998834333171	152
0	1073	48192.133998635158	151
0	1077	48208.662718772559	150
0	1082	48692.732856631694	151
0	1084	48773.103633282508	152
0	1086	48862.153757842343	153
0	1088	49466.409503210473	154
0	1089	49500	153
0	1093	49632.68367582523	152
0	1097	49692.133998635158	151
0	1101	49708.662718772559	150
0	1106	49826.049221270874	151
0	1108	49997.508117104633	152
0	1110	50037.843505789769	153
0	1112	50311.550247110307	154
0	1114	50318.044287539766	155
0	1116	50557.660240659215	156
0	1118	50721.887649151394	157
0	1120	50826.211002700456	158
0	1121	51000	157
0	1125	51132.68367582523	156
0	1129	51192.133998635158	155
0	1133	51208.662718772559	154
0	1138	51290.203306735711	155
0	1140	51491.484166676551	156
0	1142	51506.258354527355	157
0	1144	51930.460350430551	158
0	1146	52186.324962043583	159
0	1148	52210.003481533714	160
0	1149	52500	159
0	1154	52614.974680570115	160
0	1155	52632.68367582523	159
0	1159	52692.133998635158	158
0	1164	52701.405662320035	159
0	1165	52708.662718772559	158
0	1170	52882.374608449638	159
0	1172	52957.471383461809	160
0	1174	53102.136723205379	161
0	1176	53192.376342124864	162
0	1178	53412.088811665293	163
0	1180	53637.686128477386	164
0	1182	53803.707450071481	165
0	1183	54000	164
0	1188	54066.087508907125	165
0	1190	54070.209763983441	166
0	1191	54132.68367582523	165
0	1195	54192.133998635158	164
0	1199	54208.662718772559	163
0	1204	54470.020612515486	164
0	1206	54470.487660527306	165
0	1208	54702.137255749656	166
0	1210	54796.686781206497	167
0	1212	55060.852094492606	168
0	1214	55082.532076886283	169
0	1216	55135.17960842596	170
0	1218	55200.281144081655	171
0	1220	55355.372419815995	172
0	1221	55500	171
0	1226	55528.947418331955	172
0	1227	55632.68367582523	171
0	1231	55692.133998635158	170
0	1235	55708.662718772559	169
0	1240	55913.36050899288	170
0	1242	56261.130921518663	171
0	1244	56734.471390979632	172
0	1246	56759.509522100609	173
0	1248	56794.929755379514	174
0	1250	56928.086957375491	175
0	1251	57000	174
0	1256	57021.102270051509	175
0	1258	57070.977715464915	176
0	1259	57132.68367582523	175
0	1264	57144.090400570352	176
0	1265	57192.133998635158	175
0	1269	57208.662718772559	174
0	1274	57865.93834843112	175
0	1276	57977.849514364875	176
0	1278	58067.738281345196	177
0	1279	58500	176
0	1283	58632.68367582523	175
0	1287	58692.133998635158	174
0	1291	58708.662718772559	173
0	1296	58726.302897453554	174
0	1298	58989.867342343657	175
0	1300	59078.057583482931	176
0	1302	59130.703579048654	177
0	1304	59325.913363876013	178
0	1306	59499.329443125046	179
0	1308	59771.856155790958	180
0	1310	59875.887368735114	181
0	1311	60000	180
0	1315	60132.68367582523	179
0	1320	60185.851969930605	180
0	1321	60192.133998635158	179
0	1325	60208.662718772559	178
0	1330	60635.834165407834	179
0	1332	60953.397823045038	180
0	1334	61116.858569786091	181
0	1336	61130.249560765412	182
0	1338	61163.034026737937	183
0	1340	61169.658200192809	184
0	1342	61193.823696288591	185
0	1344	61481.145392329979	186
0	1345	61500	185
0	1349	61632.68367582523	184
0	1353	61692.133998635158	183
0	1357	61708.662718772559	182
0	1362	61729.52956257688	183
0	1364	61982.93056287112	184
0	1366	62397.650515453255	185
0	1368	62602.712839661937	186
0	1370	62603.126266775078	187
0	1372	62874.334207670664	188
0	1374	62965.289947905322	189
0	1375	63000	188
0	1379	63132.68367582523	187
0	1383	63192.133998635158	186
0	1387	63208.662718772559	185
0	1392	63393.698019078612	186
0	1394	63542.806201811945	187
0	1396	63790.711499131398	188
0	1398	63956.18094775416	189
0	1400	64340.263846312574	190
0	1402	64472.032281002475	191
0	1403	64500	190
0	1408	64629.81736150728	191
0	1409	64632.68367582523	190
0	1413	64692.133998635158	189
0	1417	64708.662718772559	188
0	1422	64822.146848301744	189
0	1424	64864.885441538792	190
0	1426	64877.041070886848	191
0	1428	64938.152422933848	192
0	1430	65204.091518177334	193
0	1432	65245.692272718805	194
0	1434	65325.450593641998	195
0	1436	65347.136293093338	196
0	1438	65708.894004309582	197
0	1439	66000	196
0	1443	66132.68367582523	195
0	1447	66192.133998635158	194
0	1451	66208.662718772559	193
0	1456	66359.741436243277	194
0	1458	66454.818214382773	195
0	1460	67125.851899055472	196
0	1462	67489.855707652772	197
0	1463	67500	196
0	1468	67585.007955850571	197
0	1469	67632.68367582523	196
0	1473	67692.133998635158	195
0	1477	67708.662718772559	194
0	1482	67934.602972308298	195
0	1484	68058.658258469352	196
0	1486	68070.33407451024	197
0	1488	68205.333307894209	198
0	1490	68806.496765217643	199
0	1492	68862.773743939949	200
0	1493	69000	199
0	1497	69132.68367582523	198
0	1501	69192.133998635158	197
0	1505	69208.662718772559	196
0	1510	69223.329218927706	197
0	1512	69262.076260730703	198
0	1514	69583.987799748436	199
0	1516	69617.01163230375	200
0	1518	69866.11860818659	201
0	1520	70064.22934854331	202
0	1522	70144.499972724966	203
0	1524	70313.007473592468	204
0	1525	70500	203
0	1530	70532.476379495187	204
0	1532	70550.022889724943	205
0	1533	70632.68367582523	204
0	1537	70692.133998635158	203
0	1541	70708.662718772559	202
0	1546	70883.435463502771	203
0	1548	71033.321381882912	204
0	1550	71119.749989053629	205
0	1552	71444.639157753387	206
0	1554	71534.918957159662	207
0	1556	71686.789924259219	208
0	1558	71813.541946190832	209
0	1560	71847.854303782998	210
0	1562	71904.185645107186	211
0	1563	72000	210
0	1568	72002.742806706593	211
0	1570	72046.135290111361	212
0	1572	72070.021174597721	213
0	1573	72132.68367582523	212
0	1578	72151.907703093523	213
0	1579	72192.133998635158	212
0	1583	72208.662718772559	211
0	1588	72385.581285057188	212
0	1590	72404.483092203666	213
0	1592	72587.44358123068	214
0	1594	72898.913524347156	215
0	1596	72989.667854906472	216
0	1598	73093.447984612409	217
0	1600	73253.515425694265	218
0	1602	73258.678389590957	219
0	1603	73500	218
0	1608	73630.058877338259	219
0	1609	73632.68367582523	218
0	1613	73692.133998635158	217
0	1617	73708.662718772559	216
0	1622	73734.529836386975	217
0	1624	73929.635622160865	218
0	1626	73931.950053759625	219
0	1628	74046.326028117182	220
0	1630	74486.904120183526	221
0	1632	74686.965553324862	222
0	1633	75000	221
0	1638	75013.24837034585	222
0	1640	75130.828975778462	223
0	1641	75132.68367582523	222
0	1645	75192.133998635158	221
0	1649	75208.662718772559	220
0	1654	75262.734837715138	221
0	1656	75502.4486649899	222
0	1658	75702.651839593944	223
0	1660	75723.113750597406	224
0	1662	75750.562465120612	225
0	1664	75778.708832654674	226
0	1666	75781.384583383477	227
0	1668	75871.163765095185	228
0	1670	75992.140050892673	229
0	1672	76172.113641919152	230
0	1674	76221.379113211057	231
0	1676	76288.971607747566	232
0	1677	76500	231
0	1681	76632.68367582523	230
0	1685	76692.133998635158	229
0	1690	76708.284914229469	230
0	1691	76708.662718772559	229
0	1696	76893.05787631413	230
0	1698	77068.847224642014	231
0	1700	77142.552848711622	232
0	1702	77196.84749249989	233
0	1704	77216.796025136574	234
0	1706	77405.150391183295	235
0	1708	77417.693304332248	236
0	1710	77419.727538744647	237
0	1712	77807.512049552978	238
0	1714	77867.652016490995	239
0	1716	77892.075352772231	240
0	1717	78000	239
0	1722	78047.322211219161	240
0	1723	78132.68367582523	239
0	1728	78163.728225574118	240
0	1729	78192.133998635158	239
0	1733	78208.662718772559	238
0	1738	78289.267161786644	239
0	1740	78333.51392189953	240
0	1742	78380.175740025731	241
0	1744	78401.576928692552	242
0	1746	78447.120441458443	243
0	1748	78746.208293604995	244
0	1750	78774.51665064517	245
0	1752	78877.122558003964	246
0	1754	79134.122390233003	247
0	1756	79166.636816660237	248
0	1758	79443.193434480814	249
0	1760	79443.678793376279	250
0	1761	79500	249
0	1765	79632.68367582523	248
0	1769	79692.133998635158	247
0	1774	79700.512905690975	248
0	1775	79708.662718772559	247
0	1780	79894.856801299561	248
0	1782	80073.666801715619	249
0	1784	80153.811659643063	250
0	1786	80256.351215892852	251
0	1788	80452.768109078101	252
0	1790	80466.918148982024	253
0	1792	80481.032874921217	254
0	1794	80630.703287759436	255
0	1796	80755.130529332116	256
0	1797	81000	255
0	1801	81132.68367582523	254
0	1805	81192.133998635158	253
0	1809	81208.662718772559	252
0	1814	81371.791106551919	253
0	1816	81378.982129497441	254
0	1818	81573.051691287532	255
0	1820	81599.486100013644	256
0	1822	81683.880894800885	257
0	1824	81857.855833950097	258
0	1826	81993.057833590995	259
0	1827	82500	258
0	1832	82540.520205072697	259
0	1834	82594.224163458854	260
0	1836	82602.872987384551	261
0	1837	82632.68367582523	260
0	1841	82692.133998635158	259
0	1845	82708.662718772559	258
0	1850	82793.662507083369	259
0	1852	82837.623963834045	260
0	1854	82992.756317442885	261
0	1856	83011.446095011075	262
0	1858	83036.92710424107	263
0	1860	83136.662142917207	264
0	1862	83266.733547249151	265
0	1864	83339.670216098817	266
0	1866	83601.074372905605	267
0	1868	83799.948048912075	268
0	1870	83819.238751503847	269
0	1872	83938.642394767776	270
0	1873	84000	269
0	1877	84132.68367582523	268
0	1882	84171.391598780669	269
0	1883	84192.133998635158	268
0	1887	84208.662718772559	267
0	1892	84435.39225606726	268
0	1894	84463.640209180652	269
0	1896	84486.111342322822	270
0	1898	84542.4118542944	271
0	1900	84552.129433667674	272
0	1902	84570.634961891133	273
0	1904	84587.820230821274	274
0	1906	84970.727091491552	275
0	1908	84992.787037351963	276
0	1910	85123.620289921823	277
0	1912	85156.488335985376	278
0	1914	85165.305876750911	279
0	1916	85206.869079606778	280
0	1918	85238.349745726635	281
0	1920	85240.262727125049	282
0	1922	85273.003428879993	283
0	1924	85321.0291293318	284
0	1926	85450.346687105289	285
0	1928	85480.57209981908	286
0	1929	85500	285
0	1933	85632.68367582523	284
0	1937	85692.133998635158	283
0	1941	85708.662718772559	282
0	1946	85780.669916023323	283
0	1948	85989.936473645739	284
0	1950	86122.466070378622	285
0	1952	86500.982056607949	286
0	1954	86569.082163128291	287
0	1955	87000	286
0	1960	87008.604280468468	287
0	1961	87132.68367582523	286
0	1965	87192.133998635158	285
0	1969	87208.662718772559	284
0	1974	87444.627253313398	285
0	1976	87860.674147386274	286
0	1978	87899.136080899236	287
0	1980	87914.464932925975	288
0	1982	87974.579418533292	289
0	1984	88359.069713042506	290
0	1985	88500	289
0	1990	88562.629419553528	290
0	1991	88632.68367582523	289
0	1995	88692.133998635158	288
0	1999	88708.662718772559	287
0	2004	89061.589269548182	288
0	2006	89482.351276600564	289
0	2008	89549.118492705436	290
0	2010	89660.42763354939	291
0	2012	89747.197286236623	292
0	2014	89957.17888419518	293
0	2016	89984.677540175487	294
0	2017	90000	293
0	2021	90132.68367582523	292
0	2025	90192.133998635158	291
0	2029	90208.662718772559	290
0	2034	90249.725627835392	291
0	2036	90422.192679400638	292
0	2038	90542.767250528453	293
0	2040	90644.910476233756	294
0	2042	90860.47708088383	295
0	2044	90906.365366460466	296
0	2046	90945.891325431027	297
0	2048	91035.012916185752	298
0	2050	91073.387449949581	299
0	2052	91123.628372637314	300
0	2054	91167.707649203542	301
0	2056	91362.813467855215	302
0	2058	91379.783525154425	303
0	2059	91500	302
0	2063	91632.68367582523	301
0	2067	91692.133998635158	300
0	2071	91708.662718772559	299
0	2076	91961.759801063249	300
0	2078	92007.348610586991	301
0	2080	92027.433992958776	302
0	2082	92085.302479254098	303
0	2084	92280.213712964182	304
0	2086	92393.616350479477	305
0	2088	92408.301758943118	306
0	2090	92620.272512844537	307
0	2092	92735.679639318222	308
0	2094	92789.671035369244	309
0	2095	93000	308
0	2100	93086.798631369063	309
0	2101	93132.68367582523	308
0	2106	93161.039163143108	309
0	2108	93166.224900063467	310
0	2109	93192.133998635158	309
0	2113	93208.662718772559	308
0	2118	93322.669056714612	309
0	2120	93400.963736871728	310
0	2122	93806.870161025081	311
0	2124	93898.099416667609	312
0	2126	93967.063676836733	313
0	2127	94500	312
0	2132	94552.526644830544	313
0	2134	94612.635216788947	314
0	2135	94632.68367582523	313
0	2140	94673.794833708774	314
0	2141	94692.133998635158	313
0	2145	94708.662718772559	312
0	2150	94837.913117925053	313
0	2152	94864.441794520566	314
0	2154	95072.109798439722	315
0	2156	95211.866335817587	316
0	2158	95222.471853855498	317
0	2160	95589.230391154897	318
0	2162	95754.994436862287	319
0	2164	95929.373259703646	320
0	2165	96000	319
0	2170	96119.487783307883	320
0	2171	96132.68367582523	319
0	2176	96167.923781463745	320
0	2177	96192.133998635158	319
0	2182	96194.150508373527	320
0	2183	96208.662718772559	319
0	2188	96417.377688287357	320
0	2190	96421.975946980959	321
0	2192	96425.157729652176	322
0	2194	96789.454411507607	323
0	2196	96863.926426518467	324
0	2198	96930.574162132424	325
0	2200	97018.891198913765	326
0	2202	97350.558388538321	327
0	2203	97500	326
0	2208	97502.504413369417	327
0	2210	97518.193234944111	328
0	2212	97589.737939174421	329
0	2213	97632.68367582523	328
0	2217	97692.133998635158	327
0	2222	97693.786257557412	328
0	2223	97708.662718772559	327
0	2228	97747.865686117055	328
0	2230	97793.343685849326	329
0	2232	97886.768294298657	330
0	2234	97959.90092364992	331
0	2236	98077.959281142484	332
0	2238	98080.152693348513	333
0	2240	98200.975609746729	334
0	2242	98256.030756369103	335
0	2244	98657.172635105073	336
0	2246	98684.275894287317	337
0	2248	98874.632148590598	338
0	2249	99000	337
0	2254	99048.653745132676	338
0	2256	99073.450490193882	339
0	2257	99132.68367582523	338
0	2261	99192.133998635158	337
0	2265	99208.662718772559	336
0	2270	99333.586196800033	337
0	2272	99363.160930985538	338
0	2274	99377.389681242255	339
0	2276	99710.474537146128	340
0	2278	99739.586912772116	341
0	2280	99778.868143283373	342
0	2282	99879.882729927265	343
0	2284	100145.288794942181	344
0	2286	100339.758167157103	345
0	2288	100413.576446128948	346
0	2289	100500	345
0	2294	100558.74156434261	346
0	2295	100632.68367582523	345
0	2299	100692.133998635158	344
0	2303	100708.662718772559	343
0	2308	100730.088220675197	344
0	2310	100744.499721188154	345
0	2312	100839.487420043244	346
0	2314	100908.069913908019	347
0	2316	101527.805360592029	348
0	2318	101992.073974591493	349
0	2319	102000	348
0	2323	102132.68367582523	347
0	2327	102192.133998635158	346
0	2332	102203.159332942135	347
0	2333	102208.662718772559	346
0	2338	102399.819403408716	347
0	2340	102698.153010339241	348
0	2342	102836.265123907056	349
0	2344	102969.10489211202	350
0	2346	103049.082241392993	351
0	2348	103289.320737693079	352
0	2350	103452.472403239606	353
0	2351	103500	352
0	2356	103545.767407217121	353
0	2357	103632.68367582523	352
0	2362	103677.614475216184	353
0	2363	103692.133998635158	352
0	2367	103708.662718772559	351
0	2372	103966.019610948475	352
0	2374	104037.019374106567	353
0	2376	104072.259413694121	354
0	2378	104092.908135855168	355
0	2380	104357.329225654821	356
0	2382	104598.638290327034	357
0	2384	104718.596564763739	358
0	2385	105000	357
0	2389	105132.68367582523	356
0	2393	105192.133998635158	355
0	2397	105208.662718772559	354
0	2402	105351.58424903845	355
0	2404	105442.484207236344	356
0	2406	105495.439385195419	357
0	2408	105533.827913485579	358
0	2410	105555.863312107056	359
0	2412	105571.438289620226	360
0	2414	105838.884463087781	361
0	2416	106153.819165681271	362
0	2418	106226.590959201299	363
0	2420	106245.05911419885	364
0	2422	106309.057947603187	365
0	2424	106390.644998350458	366
0	2426	106418.694896478804	367
0	2427	106500	366
0	2432	106512.162345842096	367
0	2434	106531.065986323113	368
0	2435	106632.68367582523	367
0	2440	106679.547985549091	368
0	2441	106692.133998635158	367
0	2445	106708.662718772559	366
0	2450	107115.490823844329	367
0	2452	107266.799677810598	368
0	2454	107452.781462025107	369
0	2456	107459.975564512641	370
0	2458	107508.044679878159	371
0	2460	107695.415926645362	372
0	2462	107702.223824345913	373
0	2464	107741.632074511045	374
0	2466	107748.224662007195	375
0	2467	108000	374
0	2471	108132.68367582523	373
0	2476	108180.256876578382	374
0	2477	108192.133998635158	373
0	2481	108208.662718772559	372
0	2486	108560.720030405417	373
0	2488	108595.374463757309	374
0	2490	108634.841930241021	375
0	2492	108640.272555293179	376
0	2494	109033.506326933977	377
0	2496	109263.173280386725	378
0	2497	109500	377
0	2501	109632.68367582523	376
0	2505	109692.133998635158	375
0	2509	109708.662718772559	374
0	2514	109978.38400131468	375
0	2516	110113.834525539291	376
0	2518	110300.294492732863	377
0	2520	110383.342025147701	378
0	2522	110734.423134976155	379
0	2524	110863.998518435492	380
0	2525	111000	379
0	2530	111127.080808444003	380
0	2531	111132.68367582523	379
0	2536	111158.582150176881	380
0	2537	111192.133998635158	379
0	2541	111208.662718772559	378
0	2546	111426.00896161771	379
0	2548	111451.438120471495	380
0	2550	111837.043880442404	381
0	2552	111962.570343340921	382
0	2554	111973.124622462606	383
0	2556	112116.120017954363	384
0	2558	112140.738265071591	385
0	2559	112500	384
0	2563	112632.68367582523	383
0	2567	112692.133998635158	382
0	2572	112706.912045895384	383
0	2573	112708.662718772559	382
0	2578	112769.029901337404	383
0	2580	113176.214502262863	384
0	2582	113183.642588932503	385
0	2584	113549.246782385855	386
0	2586	113593.261262947144	387
0	2588	113621.420526436393	388
0	2590	113723.413371170595	389
0	2591	114000	388
0	2595	114132.68367582523	387
0	2599	114192.133998635158	386
0	2603	114208.662718772559	385
0	2608	114622.257717302395	386
0	2610	114634.407298096133	387
0	2612	114753.05832931227	388
0	2614	114877.618295814422	389
0	2616	115359.30719482002	390
0	2618	115461.005355606225	391
0	2619	115500	390
0	2624	115534.818942405287	391
0	2625	115632.68367582523	390
0	2629	115692.133998635158	389
0	2633	115708.662718772559	388
0	2638	115768.408679392388	389
0	2640	115883.15521682669	390
0	2642	116015.578828652274	391
0	2644	116114.213231578358	392
0	2646	116244.381287146708	393
0	2648	116447.003890403056	394
0	2650	116451.838980930647	395
0	2652	116684.47584423272	396
0	2654	116731.845236797997	397
0	2656	116807.330750808325	398
0	2658	116950.126740409497	399
0	2659	117000	398
0	2663	117132.68367582523	397
0	2667	117192.133998635158	396
0	2671	117208.662718772559	395
0	2676	117551.067620897795	396
0	2678	117597.651262316201	397
0	2680	117663.65334763056	398
0	2682	118033.959213847705	399
0	2684	118177.958937208266	400
0	2686	118297.783231159645	401
0	2688	118307.397028130238	402
0	2690	118407.361999342995	403
0	2692	118414.638206789818	404
0	2693	118500	403
0	2698	118559.045242930254	404
0	2699	118632.68367582523	403
0	2703	118692.133998635158	402
0	2707	118708.662718772559	401
0	2712	118744.301608747575	402
0	2714	118773.241280144469	403
0	2716	119019.771675210966	404
0	2718	119024.39276193469	405
0	2720	119108.384829991152	406
0	2722	119233.608617421954	407
0	2724	119435.297446366167	408
0	2726	119509.453892365522	409
0	2728	119658.585322324239	410
0	2730	119931.452622721341	411
0	2732	119949.123965449435	412
0	2733	120000	411
0	2738	120009.953772653854	412
0	2739	120132.68367582523	411
0	2744	120133.080487275377	412
0	2746	120167.454239069891	413
0	2747	120192.133998635158	412
0	2751	120208.662718772559	411
0	2756	120221.01275714461	412
0	2758	120287.798193363469	413
0	2760	120375.271210831575	414
0	2762	120656.2152364619	415
0	2764	120660.642253567664	416
0	2766	120743.252060582142	417
0	2768	120816.267679436686	418
0	2770	121058.577736076465	419
0	2772	121072.870137765259	420
0	2774	121191.46078429879	421
0	2776	121305.408443111749	422
0	2777	121500	421
0	2782	121559.604247423369	422
0	2783	121632.68367582523	421
0	2788	121657.238019548556	422
0	2789	121692.133998635158	421
0	2793	121708.662718772559	420
0	2798	121817.829174557037	421
0	2800	122293.729745395044	422
0	2802	122378.297900614805	423
0	2804	122444.953600471248	424
0	2806	122722.483155642982	425
0	2808	122884.320257214092	426
0	2809	123000	425
0	2814	123083.392124967264	426
0	2815	123132.68367582523	425
0	2820	123178.478832856172	426
0	2821	123192.133998635158	425
0	2825	123208.662718772559	424
0	2830	123251.586299657113	425
0	2832	123259.692100706338	426
0	2834	123294.92997021757	427
0	2836	123378.005657487731	428
0	2838	123483.984822459547	429
0	2840	123789.024934549592	430
0	2842	123840.918255143872	431
0	2844	123866.589533592267	432
0	2846	124240.181439735507	433
0	2848	124342.315767210982	434
0	2850	124466.596008644784	435
0	2851	124500	434
0	2856	124591.385615037966	435
0	2858	124630.070720523529	436
0	2859	124632.68367582523	435
0	2863	124692.133998635158	434
0	2867	124708.662718772559	433
0	2872	124894.620657562293	434
0	2874	125020.632574304801	435
0	2876	125152.831221415073	436
0	2878	125300.464733071344	437
0	2880	125474.22533640065	438
0	2882	125722.501607849133	439
0	2884	125820.824168433965	440
0	2886	125856.784698030788	441
0	2888	125867.590316479832	442
0	2889	126000	441
0	2894	126019.072511611183	442
0	2895	126132.68367582523	441
0	2899	126192.133998635158	440
0	2903	126208.662718772559	439
0	2908	126662.637699522966	440
0	2910	126677.23911234932	441
0	2912	126910.515923907083	442
0	2914	127134.635139446746	443
0	2916	127148.564785715192	444
0	2917	127500	443
0	2921	127632.68367582523	442
0	2926	127688.457621225501	443
0	2927	127692.133998635158	442
0	2931	127708.662718772559	441
0	2936	127800.656008385888	442
0	2938	127876.93806230145	443
0	2940	127897.574511452511	444
0	2942	128305.101723588275	445
0	2944	128340.298501445958	446
0	2946	128402.020325736219	447
0	2948	128599.529384431601	448
0	2949	129000	447
0	2953	129132.68367582523	446
0	2957	129192.133998635158	445
0	2961	129208.662718772559	444
0	2966	129361.382891626362	445
0	2968	129547.792413739538	446
0	2970	129574.041577361383	447
0	2972	129599.701257471178	448
0	2974	130131.087429452646	449
0	2976	130147.70658598198	450
0	2977	130500	449
0	2982	130505.952464267918	450
0	2983	130632.68367582523	449
0	2988	130658.463288929819	450
0	2989	130692.133998635158	449
0	2993	130708.662718772559	448
0	2998	130849.885642213303	449
0	3000	131026.468429127509	450
0	3002	131101.109391233957	451
0	3004	131170.214144661535	452
0	3006	131181.647761730997	453
0	3008	131380.749887512787	454
0	3010	131488.240851207669	455
0	3012	131995.522978877043	456
0	3013	132000	455
0	3018	132130.616337940372	456
0	3019	132132.68367582523	455
0	3023	132192.133998635158	454
0	3027	132208.662718772559	453
0	3032	132232.976575304284	454
0	3034	132282.397224295131	455
0	3036	132825.915471022544	456
0	3038	132956.464152769742	457
0	3040	133056.438266896229	458
0	3042	133113.273834223748	459
0	3044	133329.735357053148	460
0	3045	133500	459
0	3049	133632.68367582523	458
0	3053	133692.133998635158	457
0	3057	133708.662718772559	456
0	3062	133938.18936909995	457
0	3064	134046.808119352274	458
0	3066	134087.981991352709	459
0	3068	134219.684634477592	460
0	3070	134247.813789365533	461
0	3072	134569.746559495139	462
0	3073	135000	461
0	3078	135103.506772540948	462
0	3079	135132.68367582523	461
0	3083	135192.133998635158	460
0	3087	135208.662718772559	459
0	3092	135230.594663392115	460
0	3094	135351.36726262963	461
0	3096	135522.007627765485	462
0	3098	135546.599689384581	463
0	3100	135548.29111551993	464
0	3102	135570.365026177642	465
0	3104	135672.556868268135	466
0	3106	135714.790332183929	467
0	3108	135777.211954149505	468
0	3110	135896.345242480778	469
0	3112	136178.048345187145	470
0	3114	136178.454961681953	471
0	3116	136241.639076062846	472
0	3118	136411.535570644065	473
0	3119	136500	472
0	3124	136605.789024111978	473
0	3125	136632.68367582523	472
0	3130	136644.391455379952	473
0	3131	136692.133998635158	472
0	3135	136708.662718772559	471
0	3140	136751.055154246392	472
0	3142	136831.66116795012	473
0	3144	136902.056393765557	474
0	3146	137663.48881300899	475
0	3147	138000	474
0	3151	138132.68367582523	473
0	3155	138192.133998635158	472
0	3160	138197.442072855461	473
0	3161	138208.662718772559	472
0	3166	138342.524097284904	473
0	3168	138359.323097167616	474
0	3170	138571.287976381786	475
0	3172	138575.384922916807	476
0	3174	138718.362770441196	477
0	3176	139037.280923076612	478
0	3178	139147.150890242294	479
0	3180	139342.469370945009	480
0	3181	139500	479
0	3186	139571.35543331004	480
0	3188	139575.718115887387	481
0	3189	139632.68367582523	480
0	3193	139692.133998635158	479
0	3197	139708.662718772559	478
0	3202	139995.593839953519	479
0	3204	140121.404074101974	480
0	3206	140269.15587959284	481
0	3208	140361.071729972611	482
0	3210	140575.287354680041	483
0	3212	140773.822987720197	484
0	3214	140828.165562762324	485
0	3216	140839.116884246534	486
0	3218	140975.127608092006	487
0	3219	141000	486
0	3224	141076.621270768554	487
0	3225	141132.68367582523	486
0	3229	141192.133998635158	485
0	3233	141208.662718772559	484
0	3238	141274.807449969224	485
0	3240	141297.068682078076	486
0	3242	141396.823625870389	487
0	3243	142500	486
0	3248	142510.260531048375	487
0	3249	142632.68367582523	486
0	3253	142692.133998635158	485
0	3257	142708.662718772559	484
0	3262	142907.906084102655	485
0	3264	142955.220265632344	486
0	3266	143221.132623260679	487
0	3268	143336.332619620485	488
0	3270	143361.453739013172	489
0	3272	143437.76247003424	490
0	3274	143591.769335923335	491
0	3275	144000	490
0	3280	144045.977512854078	491
0	3281	144132.68367582523	490
0	3286	144166.900596387189	491
0	3287	144192.133998635158	490
0	3291	144208.662718772559	489
0	3296	144372.303594324314	490
0	3298	144447.759630532688	491
0	3300	144734.185582665796	492
0	3302	144849.339638431265	493
0	3304	144954.23348493694	494
0	3306	144956.875722286671	495
0	3308	144958.168824072164	496
0	3310	144991.139563213542	497
0	3312	145208.916055867872	498
0	3314	145409.698303077302	499
0	3315	145500	498
0	3320	145548.825713899207	499
0	3322	145573.855718170127	500
0	3323	145632.68367582523	499
0	3327	145692.133998635158	498
0	3331	145708.662718772559	497
0	3336	146084.159638688356	498
0	3338	146145.867687689487	499
0	3340	146200.341462115737	500
0	3342	146342.330305106965	501
0	3344	146357.486957997453	502
0	3345	147000	501
0	3350	147010.079177388137	502
0	3352	147026.806744943911	503
0	3353	147132.68367582523	502
0	3357	147192.133998635158	501
0	3361	147208.662718772559	500
0	3366	147456.211867633559	501
0	3368	147509.111716028895	502
0	3370	147751.828524635524	503
0	3372	147758.975090424571	504
0	3374	147929.627988847261	505
0	3376	148081.531689207595	506
0	3378	148280.7741833662	507
0	3380	148323.759075451687	508
0	3382	148383.638903548786	509
0	3384	148402.815512309644	510
0	3386	148484.773380395512	511
0	3387	148500	510
0	3392	148593.811444054817	511
0	3393	148632.68367582523	510
0	3398	148660.929379295996	511
0	3399	148692.133998635158	510
0	3403	148708.662718772559	509
0	3408	148762.246148343987	510
0	3410	149026.084310165142	511
0	3412	149653.134684905143	512
0	3414	149863.851750350293	513
0	3415	150000	512
0	3419	150132.68367582523	511
0	3423	150192.133998635158	510
0	3427	150208.662718772559	509
0	3432	150369.818065498329	510
0	3434	150453.771181471973	511
0	3436	150642.615538623974	512
0	3438	150772.205895676301	513
0	3440	150943.07651959991	514
0	3442	151076.27932928689	515
0	3443	151500	514
0	3448	151580.648898544936	515
0	3450	151584.97243926306	516
0	3451	151632.68367582523	515
0	3455	151692.133998635158	514
0	3459	151708.662718772559	513
0	3464	151911.480586981824	514
0	3466	151950.970955161159	515
0	3468	152135.556701244505	516
0	3470	152363.814303076862	517
0	3471	153000	516
0	3476	153054.863242062933	517
0	3478	153055.05101945589	518
0	3479	153132.68367582523	517
0	3483	153192.133998635158	516
0	3487	153208.662718772559	515
0	3492	153312.353081463295	516
0	3494	153807.383920350529	517
0	3496	153933.540343253197	518
0	3498	153963.342296094852	519
0	3500	154308.239504981716	520
0	3502	154312.365114642939	521
0	3504	154324.566134052093	522
0	3506	154478.268879430318	523
0	3507	154500	522
0	3512	154558.76629663291	523
0	3514	154622.450295104829	524
0	3515	154632.68367582523	523
0	3519	154692.133998635158	522
0	3523	154708.662718772559	521
0	3528	154823.988058888447	522
0	3530	154833.608701965798	523
0	3532	154859.094487404288	524
0	3534	155037.654228515177	525
0	3536	155053.461002840931	526
0	3538	155110.802923134759	527
0	3540	155270.803026643723	528
0	3542	155336.586955530472	529
0	3544	155488.58201519782	530
0	3546	155514.857381809444	531
0	3548	155579.407807663717	532
0	3550	155900.140706946541	533
0	3552	155984.119198892063	534
0	3553	156000	533
0	3558	156028.057915404493	534
0	3559	156132.68367582523	533
0	3563	156192.133998635158	532
0	3567	156208.662718772559	531
0	3572	156294.072366243003	532
0	3574	156454.234486050118	533
0	3576	157052.721128250226	534
0	3578	157100.656521063532	535
0	3580	157124.932713615553	536
0	3582	157186.20392295572	537
0	3584	157303.800258914738	538
0	3585	157500	537
0	3589	157632.68367582523	536
0	3593	157692.133998635158	535
0	3597	157708.662718772559	534
0	3602	157781.190371662089	535
0	3604	157811.983885286122	536
0	3606	157869.244780880672	537
0	3608	157892.364680603487	538
0	3610	157903.4998336149	539
0	3612	157981.14018404315	540
0	3614	158000.385351143015	541
0	3616	158077.316999438721	542
0	3618	158303.830625223582	543
0	3620	158397.39816862858	544
0	3622	158432.692284639137	545
0	3624	158643.001233460838	546
0	3625	159000	545
0	3630	159126.816254747272	546
0	3631	159132.68367582523	545
0	3635	159192.133998635158	544
0	3639	159208.662718772559	543
0	3644	159427.255715412261	544
0	3646	159810.860703304849	545
0	3648	160034.972257621319	546
0	3650	160153.299682340701	547
0	3652	160438.557048898493	548
0	3653	160500	547
0	3658	160596.672974643094	548
0	3659	160632.68367582523	547
0	3663	160692.133998635158	546
0	3667	160708.662718772559	545
0	3672	160945.148666960559	546
0	3674	161144.151044696744	547
0	3676	161177.779203710353	548
0	3678	161797.29266624198	549
0	3680	161877.534759572353	550
0	3681	162000	549
0	3685	162132.68367582523	548
0	3689	162192.133998635158	547
0	3693	162208.662718772559	546
0	3698	162835.687073449198	547
0	3700	163102.90534903534	548
0	3702	163201.856300446727	549
0	3704	163331.899889347343	550
0	3706	163485.618721331544	551
0	3707	163500	550
0	3712	163604.475251797747	551
0	3713	163632.68367582523	550
0	3718	163639.119406231435	551
0	3720	163679.765058767692	552
0	3721	163692.133998635158	551
0	3725	163708.662718772559	550
0	3730	163750.816576901336	551
0	3732	163912.861131538408	552
0	3734	163944.004275011986	553
0	3736	163954.305401040069	554
0	3738	164006.649735844985	555
0	3740	164015.383853474728	556
0	3742	164141.996831795334	557
0	3744	164253.980987610787	558
0	3746	164443.152150043238	559
0	3748	164546.508916945899	560
0	3750	164642.753621289882	561
0	3752	164720.326110656393	562
0	3754	164850.669471822775	563
0	3755	165000	562
0	3759	165132.68367582523	561
0	3764	165138.382565486426	562
0	3766	165141.359761815026	563
0	3767	165192.133998635158	562
0	3771	165208.662718772559	561
0	3776	165363.510181056356	562
0	3778	165373.686769625455	563
0	3780	165474.875682131505	564
0	3782	165676.385928199013	565
0	3784	165831.007973416151	566
0	3786	166361.62308986329	567
0	3787	166500	566
0	3792	166587.173082489281	567
0	3793	166632.68367582523	566
0	3797	166692.133998635158	565
0	3801	166708.662718772559	564
0	3806	166780.338932569009	565
0	3808	166899.680177963636	566
0	3810	166993.534593225256	567
0	3812	167203.39365832501	568
0	3814	167537.215365890673	569
0	3816	167718.941286749344	570
0	3818	167888.348657117565	571
0	3820	167890.657343417109	572
0	3821	168000	571
0	3826	168056.721213170305	572
0	3828	168082.681822090439	573
0	3829	168132.68367582523	572
0	3834	168141.409211477152	573
0	3835	168192.133998635158	572
0	3839	168208.662718772559	571
0	3844	168446.942336083229	572
0	3846	168563.831282823605	573
0	3848	168756.106341436292	574
0	3850	168889.115172854641	575
0	3852	168917.132820701626	576
0	3854	169093.992980132924	577
0	3856	169244.880057960079	578
0	3858	169375.816048781099	579
0	3859	169500	578
0	3863	169632.68367582523	577
0	3867	169692.133998635158	576
0	3871	169708.662718772559	575
0	3876	169784.671204834006	576
0	3878	170010.030286485812	577
0	3880	170170.412979858691	578
0	3882	170210.516416377944	579
0	3884	170245.538267756002	580
0	3886	170306.708256552027	581
0	3888	170454.134847484743	582
0	3890	170688.32467211751	583
0	3892	170741.450162669875	584
0	3894	170799.216559171501	585
0	3896	170900.209656591206	586
0	3898	170912.005436463479	587
0	3900	170946.869385384638	588
0	3902	170954.277320072738	589
0	3903	171000	588
0	3908	171033.124410237874	589
0	3910	171124.77806485725	590
0	3911	171132.68367582523	589
0	3915	171192.133998635158	588
0	3919	171208.662718772559	587
0	3924	171611.117655979392	588
0	3926	171717.910170648923	589
0	3928	171882.731321469951	590
0	3930	171906.333391268987	591
0	3932	171910.385813378099	592
0	3934	171998.014416498536	593
0	3936	172180.720202971234	594
0	3938	172230.868934599803	595
0	3940	172284.939760629344	596
0	3942	172445.443546626873	597
0	3943	172500	596
0	3948	172624.96225583887	597
0	3949	172632.68367582523	596
0	3953	172692.133998635158	595
0	3957	172708.662718772559	594
0	3962	172925.61257219379	595
0	3964	172976.041246316119	596
0	3966	173132.581660925133	597
0	3968	173397.916765043994	598
0	3969	174000	597
0	3973	174132.68367582523	596
0	3977	174192.133998635158	595
0	3981	174208.662718772559	594
0	3986	174407.581035128408	595
0	3988	174420.525456501859	596
0	3990	174578.456232250848	597
0	3991	175500	596
0	3996	175543.953051645215	597
0	3997	175632.68367582523	596
0	4002	175667.240939985375	597
0	4003	175692.133998635158	596
0	4007	175708.662718772559	595
0	4012	175736.552081870441	596
0	4014	175915.3282099756	597
0	4016	176310.529652443831	598
0	4018	176437.561311626348	599
0	4020	176541.184114352202	600
0	4022	176554.222592737984	601
0	4024	176667.548622858565	602
0	4025	177000	601
0	4030	177036.063036727263	602
0	4031	177132.68367582523	601
0	4036	177160.527225355039	602
0	4037	177192.133998635158	601
0	4041	177208.662718772559	600
0	4046	177596.318045178154	601
0	4048	177739.657667659052	602
0	4050	177872.389895374333	603
0	4052	178011.77630971487	604
0	4054	178020.928203541131	605
0	4056	178171.189610477515	606
0	4058	178466.284396933283	607
0	4059	178500	606
0	4063	178632.68367582523	605
0	4068	178635.31028895021	606
0	4069	178692.133998635158	605
0	4073	178708.662718772559	604
0	4078	179092.243572178056	605
0	4080	179123.478289929225	606
0	4082	179424.754471092805	607
0	4084	179741.460732283923	608
0	4086	179815.520619638123	609
0	4088	179890.115173113523	610
0	4089	180000	609
0	4094	180106.713185638761	610
0	4096	180107.521166962121	611
0	4097	180132.68367582523	610
0	4101	180192.133998635158	609
0	4105	180208.662718772559	608
0	4110	180257.576198596484	609
0	4112	180312.248933465955	610
0	4114	180404.310152726383	611
0	4116	180435.418258765676	612
0	4118	180500.923808291293	613
0	4120	180595.29444285139	614
0	4122	180696.478860411929	615
0	4124	180985.914511310594	616
0	4126	181004.98581252791	617
0	4128	181254.428808038965	618
0	4130	181355.043408614748	619
0	4131	181500	618
0	4136	181619.778652186197	619
0	4137	181632.68367582523	618
0	4142	181685.956100676399	619
0	4143	181692.133998635158	618
0	4147	181708.662718772559	617
0	4152	181835.677054257014	618
0	4154	182067.908542048155	619
0	4156	182213.952848997239	620
0	4158	182344.880997662968	621
0	4160	182537.436407686392	622
0	4162	182642.223195591298	623
0	4164	182885.997606864743	624
0	4165	183000	623
0	4170	183002.093430667906	624
0	4172	183086.379444894952	625
0	4173	183132.68367582523	624
0	4177	183192.133998635158	623
0	4181	183208.662718772559	622
0	4186	183263.122392860079	623
0	4188	183405.286611695944	624
0	4190	183483.368672187257	625
0	4192	184016.517595099269	626
0	4194	184166.138876797971	627
0	4196	184288.501721690598	628
0	4198	184289.376910613179	629
0	4200	184312.446821175052	630
0	4202	184335.955635004193	631
0	4203	184500	630
0	4208	184546.439400475343	631
0	4210	184618.582758754672	632
0	4211	184632.68367582523	631
0	4216	184672.778650305989	632
0	4218	184676.317440831016	633
0	4219	184692.133998635158	632
0	4223	184708.662718772559	631
0	4228	184910.773392591526	632
0	4230	185284.563337033782	633
0	4232	185330.958651981336	634
0	4233	186000	633
0	4237	186132.68367582523	632
0	4241	186192.133998635158	631
0	4245	186208.662718772559	630
0	4250	186239.961686739117	631
0	4252	186581.022182689579	632
0	4254	186593.388939561608	633
0	4256	186738.843340288259	634
0	4258	186979.078131131267	635
0	4260	187071.6524590831	636
0	4262	187330.428252247631	637
0	4264	187496.878162692736	638
0	4265	187500	637
0	4269	187632.68367582523	636
0	4273	187692.133998635158	635
0	4277	187708.662718772559	634
0	4282	187794.199552493133	635
0	4284	188017.01093631944	636
0	4286	188041.438527262341	637
0	4288	188244.718829525357	638
0	4290	188416.264847509355	639
0	4292	188514.052517608877	640
0	4294	188859.036084690133	641
0	4295	189000	640
0	4300	189037.174280264008	641
0	4301	189132.68367582523	640
0	4306	189176.347817173231	641
0	4307	189192.133998635158	640
0	4311	189208.662718772559	639
0	4316	189288.459932102649	640
0	4318	189316.451028329221	641
0	4320	189528.085548250367	642
0	4322	189579.510899921466	643
0	4324	189635.837156419357	644
0	4326	189676.636657597722	645
0	4328	189693.907409701116	646
0	4330	189786.678019824254	647
0	4332	190209.159569549729	648
0	4333	190500	647
0	4337	190632.68367582523	646
0	4342	190633.441895367522	647
0	4343	190692.133998635158	646
0	4347	190708.662718772559	645
0	4352	191528.570757375375	646
0	4353	192000	645
0	4358	192070.115113168901	646
0	4360	192087.338489892995	647
0	4361	192132.68367582523	646
0	4365	192192.133998635158	645
0	4369	192208.662718772559	644
0	4374	192349.231936387495	645
0	4376	192352.801941139607	646
0	4378	192365.068123796202	647
0	4380	192770.721919979794	648
0	4382	192849.843979851718	649
0	4384	192860.981993944606	650
0	4386	192865.107582825834	651
0	4388	193014.061074659654	652
0	4390	193122.313687758414	653
0	4392	193247.094595425886	654
0	4394	193319.599615488741	655
0	4396	193383.653874050993	656
0	4398	193466.196794197056	657
0	4399	193500	656
0	4404	193621.856237896977	657
0	4405	193632.68367582523	656
0	4409	193692.133998635158	655
0	4413	193708.662718772559	654
0	4418	194136.957018015844	655
0	4420	194492.994052708464	656
0	4422	194788.422202191107	657
0	4423	195000	656
0	4427	195132.68367582523	655
0	4431	195192.133998635158	654
0	4435	195208.662718772559	653
0	4440	195290.625957320989	654
0	4442	195392.866989350761	655
0	4444	195553.678692502893	656
0	4446	195803.879201764541	657
0	4448	196097.573113971983	658
0	4450	196406.89417903788	659
0	4451	196500	658
0	4455	196632.68367582523	657
0	4459	196692.133998635158	656
0	4463	196708.662718772559	655
0	4468	196913.028328914448	656
0	4470	196946.789780444957	657
0	4472	197062.641120122299	658
0	4474	197244.179652628916	659
0	4476	197664.287114401906	660
0	4478	197779.941605792315	661
0	4480	197825.576652642276	662
0	4482	197876.219109843318	663
0	4483	198000	662
0	4488	198046.086816940921	663
0	4489	198132.68367582523	662
0	4493	198192.133998635158	661
0	4497	198208.662718772559	660
0	4502	198511.849785244472	661
0	4504	198612.822263389474	662
0	4506	198774.595882141381	663
0	4508	198856.770285643621	664
0	4510	199122.798492200561	665
0	4512	199127.5500346315	666
0	4514	199168.476280959563	667
0	4516	199253.696175358357	668
0	4518	199262.290011810351	669
0	4520	199449.852417633566	670
0	4522	199450.133614570967	671
0	4524	199475.886036505274	672
0	4525	199500	671
0	4530	199581.034866319742	672
0	4531	199632.68367582523	671
0	4536	199684.429915375768	672
0	4537	199692.133998635158	671
0	4541	199708.662718772559	670
0	4546	199754.518103649071	671
0	4548	199784.402795840731	672
0	4550	199808.130275648169	673
0	4552	200092.608478950076	674
0	4554	200288.109338606021	675
0	4556	200404.145807941381	676
0	4558	200420.496693468369	677
0	4560	200489.863129900426	678
0	4562	200676.170710211869	679
0	4564	200968.125380341699	680
0	4565	201000	679
0	4570	201042.056554603555	680
0	4572	201077.240658784825	681
0	4574	201130.814513158225	682
0	4575	201132.68367582523	681
0	4579	201192.133998635158	680
0	4583	201208.662718772559	679
0	4588	201516.592504021518	680
0	4590	201519.996940122036	681
0	4598	202500	680
0	4602	202632.68367582523	679
0	4606	202692.133998635158	678
0	4612	202708.662718772559	677
0	4626	204000	676
0	4634	204132.68367582523	675
0	4640	204192.133998635158	674
0	4644	204208.662718772559	673
0	4670	205500	672
0	4674	205632.68367582523	671
0	4678	205692.133998635158	670
0	4682	205708.662718772559	669
0	4700	207000	668
0	4704	207132.68367582523	667
0	4708	207192.133998635158	666
0	4712	207208.662718772559	665
0	4720	208500	664
0	4724	208632.68367582523	663
0	4728	208692.133998635158	662
0	4732	208708.662718772559	661
0	4760	210000	660
0	4764	210132.68367582523	659
0	4772	210192.133998635158	658
0	4778	210208.662718772559	657
0	4802	211500	656
0	4810	211632.68367582523	655
0	4814	211692.133998635158	654
0	4818	211708.662718772559	653
0	4844	213000	652
0	4850	213132.68367582523	651
0	4854	213192.133998635158	650
0	4858	213208.662718772559	649
0	4880	214500	648
0	4884	214632.68367582523	647
0	4888	214692.133998635158	646
0	4892	214708.662718772559	645
0	4912	216000	644
0	4920	216132.68367582523	643
0	4924	216192.133998635158	642
0	4928	216208.662718772559	641
0	4950	217500	640
0	4954	217632.68367582523	639
0	4960	217692.133998635158	638
0	4964	217708.662718772559	637
0	4982	219000	636
0	4986	219132.68367582523	635
0	4990	219192.133998635158	634
0	4994	219208.662718772559	633
0	5020	220500	632
0	5026	220632.68367582523	631
0	5030	220692.133998635158	630
0	5034	220708.662718772559	629
0	5064	222000	628
0	5070	222132.68367582523	627
0	5076	222192.133998635158	626
0	5080	222208.662718772559	625
0	5116	223500	624
0	5120	223632.68367582523	623
0	5126	223692.133998635158	622
0	5132	223708.662718772559	621
0	5158	225000	620
0	5162	225132.68367582523	619
0	5166	225192.133998635158	618
0	5170	225208.662718772559	617
0	5182	226500	616
0	5186	226632.68367582523	615
0	5192	226692.133998635158	614
0	5196	226708.662718772559	613
0	5208	228000	612
0	5216	228132.68367582523	611
0	5220	228192.133998635158	610
0	5224	228208.662718772559	609
0	5236	229500	608
0	5242	229632.68367582523	607
0	5246	229692.133998635158	606
0	5250	229708.662718772559	605
0	5274	231000	604
0	5278	231132.68367582523	603
0	5282	231192.133998635158	602
0	5286	231208.662718772559	601
0	5314	232500	600
0	5318	232632.68367582523	599
0	5322	232692.133998635158	598
0	5326	232708.662718772559	597
0	5346	234000	596
0	5352	234132.68367582523	595
0	5356	234192.133998635158	594
0	5360	234208.662718772559	593
0	5374	235500	592
0	5378	235632.68367582523	591
0	5382	235692.133998635158	590
0	5386	235708.662718772559	589
0	5402	237000	588
0	5408	237132.68367582523	587
0	5414	237192.133998635158	586
0	5418	237208.662718772559	585
0	5442	238500	584
0	5446	238632.68367582523	583
0	5450	238692.133998635158	582
0	5454	238708.662718772559	581
0	5480	240000	580
0	5484	240132.68367582523	579
0	5488	240192.133998635158	578
0	5492	240208.662718772559	577
0	5516	241500	576
0	5520	241632.68367582523	575
0	5526	241692.133998635158	574
0	5532	241708.662718772559	573
0	5550	243000	572
0	5554	243132.68367582523	571
0	5558	243192.133998635158	570
0	5562	243208.662718772559	569
0	5586	244500	568
0	5592	244632.68367582523	567
0	5596	244692.133998635158	566
0	5600	244708.662718772559	565
0	5612	246000	564
0	5620	246132.68367582523	563
0	5624	246192.133998635158	562
0	5628	246208.662718772559	561
0	5652	247500	560
0	5656	247632.68367582523	559
0	5660	247692.133998635158	558
0	5664	247708.662718772559	557
0	5692	249000	556
0	5698	249132.68367582523	555
0	5704	249192.133998635158	554
0	5708	249208.662718772559	553
0	5740	250500	552
0	5746	250632.68367582523	551
0	5750	250692.133998635158	550
0	5754	250708.662718772559	549
0	5780	252000	548
0	5786	252132.68367582523	547
0	5790	252192.133998635158	546
0	5794	252208.662718772559	545
0	5820	253500	544
0	5826	253632.68367582523	543
0	5830	253692.133998635158	542
0	5834	253708.662718772559	541
0	5854	255000	540
0	5860	255132.68367582523	539
0	5866	255192.133998635158	538
0	5870	255208.662718772559	537
0	5894	256500	536
0	5904	256632.68367582523	535
0	5908	256692.133998635158	534
0	5912	256708.662718772559	533
0	5934	258000	532
0	5938	258132.68367582523	531
0	5942	258192.133998635158	530
0	5946	258208.662718772559	529
0	5964	259500	528
0	5970	259632.68367582523	527
0	5974	259692.133998635158	526
0	5978	259708.662718772559	525
0	5992	261000	524
0	5998	261132.68367582523	523
0	6002	261192.133998635158	522
0	6006	261208.662718772559	521
0	6016	262500	520
0	6022	262632.68367582523	519
0	6026	262692.133998635158	518
0	6030	262708.662718772559	517
0	6048	264000	516
0	6056	264132.68367582523	515
0	6060	264192.133998635158	514
0	6064	264208.662718772559	513
0	6096	265500	512
0	6102	265632.68367582523	511
0	6106	265692.133998635158	510
0	6110	265708.662718772559	509
0	6126	267000	508
0	6134	267132.68367582523	507
0	6140	267192.133998635158	506
0	6144	267208.662718772559	505
0	6170	268500	504
0	6178	268632.68367582523	503
0	6182	268692.133998635158	502
0	6186	268708.662718772559	501
0	6210	270000	500
0	6214	270132.68367582523	499
0	6222	270192.133998635158	498
0	6226	270208.662718772559	497
0	6242	271500	496
0	6246	271632.68367582523	495
0	6250	271692.133998635158	494
0	6254	271708.662718772559	493
0	6274	273000	492
0	6280	273132.68367582523	491
0	6286	273192.133998635158	490
0	6290	273208.662718772559	489
0	6310	274500	488
0	6318	274632.68367582523	487
0	6322	274692.133998635158	486
0	6326	274708.662718772559	485
0	6342	276000	484
0	6346	276132.68367582523	483
0	6350	276192.133998635158	482
0	6354	276208.662718772559	481
0	6370	277500	480
0	6376	277632.68367582523	479
0	6382	277692.133998635158	478
0	6386	277708.662718772559	477
0	6410	279000	476
0	6414	279132.68367582523	475
0	6418	279192.133998635158	474
0	6422	279208.662718772559	473
0	6440	280500	472
0	6446	280632.68367582523	471
0	6452	280692.133998635158	470
0	6456	280708.662718772559	469
0	6474	282000	468
0	6480	282132.68367582523	467
0	6484	282192.133998635158	466
0	6488	282208.662718772559	465
0	6510	283500	464
0	6516	283632.68367582523	463
0	6522	283692.133998635158	462
0	6526	283708.662718772559	461
0	6548	285000	460
0	6552	285132.68367582523	459
0	6556	285192.133998635158	458
0	6560	285208.662718772559	457
0	6588	286500	456
0	6594	286632.68367582523	455
0	6598	286692.133998635158	454
0	6602	286708.662718772559	453
0	6622	288000	452
0	6628	288132.68367582523	451
0	6632	288192.133998635158	450
0	6636	288208.662718772559	449
0	6658	289500	448
0	6664	289632.68367582523	447
0	6668	289692.133998635158	446
0	6672	289708.662718772559	445
0	6686	291000	444
0	6690	291132.68367582523	443
0	6694	291192.133998635158	442
0	6698	291208.662718772559	441
0	6718	292500	440
0	6722	292632.68367582523	439
0	6728	292692.133998635158	438
0	6734	292708.662718772559	437
0	6760	294000	436
0	6764	294132.68367582523	435
0	6768	294192.133998635158	434
0	6772	294208.662718772559	433
0	6790	295500	432
0	6798	295632.68367582523	431
0	6802	295692.133998635158	430
0	6806	295708.662718772559	429
0	6826	297000	428
0	6834	297132.68367582523	427
0	6838	297192.133998635158	426
0	6842	297208.662718772559	425
0	6856	298500	424
0	6862	298632.68367582523	423
0	6866	298692.133998635158	422
0	6874	298708.662718772559	421
0	6894	300000	420
0	6898	300132.68367582523	419
0	6906	300192.133998635158	418
0	6910	300208.662718772559	417
0	6928	301500	416
0	6934	301632.68367582523	415
0	6940	301692.133998635158	414
0	6944	301708.662718772559	413
0	6974	303000	412
0	6978	303132.68367582523	411
0	6982	303192.133998635158	410
0	6986	303208.662718772559	409
0	7008	304500	408
0	7012	304632.68367582523	407
0	7018	304692.133998635158	406
0	7022	304708.662718772559	405
0	7040	306000	404
0	7044	306132.68367582523	403
0	7048	306192.133998635158	402
0	7052	306208.662718772559	401
0	7074	307500	400
0	7078	307632.68367582523	399
0	7082	307692.133998635158	398
0	7086	307708.662718772559	397
0	7104	309000	396
0	7112	309132.68367582523	395
0	7116	309192.133998635158	394
0	7120	309208.662718772559	393
0	7142	310500	392
0	7146	310632.68367582523	391
0	7150	310692.133998635158	390
0	7154	310708.662718772559	389
0	7172	312000	388
0	7176	312132.68367582523	387
0	7180	312192.133998635158	386
0	7184	312208.662718772559	385
0	7204	313500	384
0	7210	313632.68367582523	383
0	7214	313692.133998635158	382
0	7218	313708.662718772559	381
0	7240	315000	380
0	7248	315132.68367582523	379
0	7252	315192.133998635158	378
0	7256	315208.662718772559	377
0	7278	316500	376
0	7286	316632.68367582523	375
0	7290	316692.133998635158	374
0	7294	316708.662718772559	373
0	7326	318000	372
0	7332	318132.68367582523	371
0	7336	318192.133998635158	370
0	7340	318208.662718772559	369
0	7370	319500	368
0	7376	319632.68367582523	367
0	7382	319692.133998635158	366
0	7386	319708.662718772559	365
0	7402	321000	364
0	7406	321132.68367582523	363
0	7410	321192.133998635158	362
0	7414	321208.662718772559	361
0	7430	322500	360
0	7434	322632.68367582523	359
0	7440	322692.133998635158	358
0	7444	322708.662718772559	357
0	7474	324000	356
0	7478	324132.68367582523	355
0	7484	324192.133998635158	354
0	7488	324208.662718772559	353
0	7516	325500	352
0	7520	325632.68367582523	351
0	7524	325692.133998635158	350
0	7528	325708.662718772559	349
0	7552	327000	348
0	7556	327132.68367582523	347
0	7560	327192.133998635158	346
0	7564	327208.662718772559	345
0	7592	328500	344
0	7598	328632.68367582523	343
0	7602	328692.133998635158	342
0	7606	328708.662718772559	341
0	7628	330000	340
0	7634	330132.68367582523	339
0	7638	330192.133998635158	338
0	7642	330208.662718772559	337
0	7664	331500	336
0	7668	331632.68367582523	335
0	7674	331692.133998635158	334
0	7678	331708.662718772559	333
0	7694	333000	332
0	7698	333132.68367582523	331
0	7702	333192.133998635158	330
0	7706	333208.662718772559	329
0	7732	334500	328
0	7740	334632.68367582523	327
0	7746	334692.133998635158	326
0	7750	334708.662718772559	325
0	7782	336000	324
0	7786	336132.68367582523	323
0	7790	336192.133998635158	322
0	7794	336208.662718772559	321
0	7812	337500	320
0	7816	337632.68367582523	319
0	7820	337692.133998635158	318
0	7824	337708.662718772559	317
0	7842	339000	316
0	7852	339132.68367582523	315
0	7856	339192.133998635158	314
0	7860	339208.662718772559	313
0	7880	340500	312
0	7884	340632.68367582523	311
0	7888	340692.133998635158	310
0	7894	340708.662718772559	309
0	7908	342000	308
0	7912	342132.68367582523	307
0	7916	342192.133998635158	306
0	7920	342208.662718772559	305
0	7934	343500	304
0	7942	343632.68367582523	303
0	7948	343692.133998635158	302
0	7952	343708.662718772559	301
0	7962	345000	300
0	7968	345132.68367582523	299
0	7972	345192.133998635158	298
0	7976	345208.662718772559	297
0	7998	346500	296
0	8002	346632.68367582523	295
0	8006	346692.133998635158	294
0	8010	346708.662718772559	293
0	8032	348000	292
0	8036	348132.68367582523	291
0	8042	348192.133998635158	290
0	8046	348208.662718772559	289
0	8060	349500	288
0	8068	349632.68367582523	287
0	8074	349692.133998635158	286
0	8078	349708.662718772559	285
0	8094	351000	284
0	8100	351132.68367582523	283
0	8104	351192.133998635158	282
0	8108	351208.662718772559	281
0	8126	352500	280
0	8130	352632.68367582523	279
0	8134	352692.133998635158	278
0	8138	352708.662718772559	277
0	8156	354000	276
0	8162	354132.68367582523	275
0	8166	354192.133998635158	274
0	8170	354208.662718772559	273
0	8188	355500	272
0	8192	355632.68367582523	271
0	8196	355692.133998635158	270
0	8200	355708.662718772559	269
0	8218	357000	268
0	8226	357132.68367582523	267
0	8230	357192.133998635158	266
0	8234	357208.662718772559	265
0	8254	358500	264
0	8258	358632.68367582523	263
0	8262	358692.133998635158	262
0	8266	358708.662718772559	261
0	8286	360000	260
0	8292	360132.68367582523	259
0	8296	360192.133998635158	258
0	8300	360208.662718772559	257
0	8324	361500	256
0	8332	361632.68367582523	255
0	8338	361692.133998635158	254
0	8342	361708.662718772559	253
0	8372	363000	252
0	8376	363132.68367582523	251
0	8380	363192.133998635158	250
0	8384	363208.662718772559	249
0	8394	364500	248
0	8400	364632.68367582523	247
0	8404	364692.133998635158	246
0	8408	364708.662718772559	245
0	8426	366000	244
0	8434	366132.68367582523	243
0	8438	366192.133998635158	242
0	8442	366208.662718772559	241
0	8458	367500	240
0	8462	367632.68367582523	239
0	8468	367692.133998635158	238
0	8472	367708.662718772559	237
0	8488	369000	236
0	8494	369132.68367582523	235
0	8500	369192.133998635158	234
0	8504	369208.662718772559	233
0	8524	370500	232
0	8528	370632.68367582523	231
0	8532	370692.133998635158	230
0	8536	370708.662718772559	229
0	8558	372000	228
0	8562	372132.68367582523	227
0	8566	372192.133998635158	226
0	8570	372208.662718772559	225
0	8584	373500	224
0	8590	373632.68367582523	223
0	8596	373692.133998635158	222
0	8600	373708.662718772559	221
0	8628	375000	220
0	8634	375132.68367582523	219
0	8638	375192.133998635158	218
0	8642	375208.662718772559	217
0	8664	376500	216
0	8668	376632.68367582523	215
0	8672	376692.133998635158	214
0	8676	376708.662718772559	213
0	8692	378000	212
0	8698	378132.68367582523	211
0	8706	378192.133998635158	210
0	8710	378208.662718772559	209
0	8728	379500	208
0	8732	379632.68367582523	207
0	8736	379692.133998635158	206
0	8740	379708.662718772559	205
0	8756	381000	204
0	8760	381132.68367582523	203
0	8764	381192.133998635158	202
0	8768	381208.662718772559	201
0	8784	382500	200
0	8788	382632.68367582523	199
0	8796	382692.133998635158	198
0	8800	382708.662718772559	197
0	8816	384000	196
0	8822	384132.68367582523	195
0	8826	384192.133998635158	194
0	8830	384208.662718772559	193
0	8844	385500	192
0	8848	385632.68367582523	191
0	8852	385692.133998635158	190
0	8856	385708.662718772559	189
0	8878	387000	188
0	8882	387132.68367582523	187
0	8888	387192.133998635158	186
0	8892	387208.662718772559	185
0	8910	388500	184
0	8914	388632.68367582523	183
0	8924	388692.133998635158	182
0	8928	388708.662718772559	181
0	8940	390000	180
0	8946	390132.68367582523	179
0	8950	390192.133998635158	178
0	8956	390208.662718772559	177
0	8976	391500	176
0	8982	391632.68367582523	175
0	8986	391692.133998635158	174
0	8992	391708.662718772559	173
0	9022	393000	172
0	9028	393132.68367582523	171
0	9032	393192.133998635158	170
0	9036	393208.662718772559	169
0	9048	394500	168
0	9052	394632.68367582523	167
0	9056	394692.133998635158	166
0	9060	394708.662718772559	165
0	9088	396000	164
0	9092	396132.68367582523	163
0	9096	396192.133998635158	162
0	9100	396208.662718772559	161
0	9128	397500	160
0	9134	397632.68367582523	159
0	9138	397692.133998635158	158
0	9142	397708.662718772559	157
0	9166	399000	156
0	9172	399132.68367582523	155
0	9176	399192.133998635158	154
0	9180	399208.662718772559	153
0	9194	400500	152
0	9198	400632.68367582523	151
0	9204	400692.133998635158	150
0	9208	400708.662718772559	149
0	9230	402000	148
0	9234	402132.68367582523	147
0	9238	402192.133998635158	146
0	9244	402208.662718772559	145
0	9268	403500	144
0	9272	403632.68367582523	143
0	9276	403692.133998635158	142
0	9280	403708.662718772559	141
0	9296	405000	140
0	9304	405132.68367582523	139
0	9308	405192.133998635158	138
0	9312	405208.662718772559	137
0	9328	406500	136
0	9332	406632.68367582523	135
0	9338	406692.133998635158	134
0	9342	406708.662718772559	133
0	9358	408000	132
0	9364	408132.68367582523	131
0	9368	408192.133998635158	130
0	9372	408208.662718772559	129
0	9396	409500	128
0	9402	409632.68367582523	127
0	9408	409692.133998635158	126
0	9412	409708.662718772559	125
0	9436	411000	124
0	9440	411132.68367582523	123
0	9444	411192.133998635158	122
0	9450	411208.662718772559	121
0	9474	412500	120
0	9478	412632.68367582523	119
0	9484	412692.133998635158	118
0	9488	412708.662718772559	117
0	9500	414000	116
0	9504	414132.68367582523	115
0	9508	414192.133998635158	114
0	9512	414208.662718772559	113
0	9532	415500	112
0	9538	415632.68367582523	111
0	9542	415692.133998635158	110
0	9546	415708.662718772559	109
0	9562	417000	108
0	9566	417132.68367582523	107
0	9570	417192.133998635158	106
0	9574	417208.662718772559	105
0	9592	418500	104
0	9600	418632.68367582523	103
0	9604	418692.133998635158	102
0	9608	418708.662718772559	101
0	9626	420000	100
0	9632	420132.68367582523	99
0	9638	420192.133998635158	98
0	9642	420208.662718772559	97
0	9654	421500	96
0	9660	421632.68367582523	95
0	9664	421692.133998635158	94
0	9668	421708.662718772559	93
0	9692	423000	92
0	9696	423132.68367582523	91
0	9700	423192.133998635158	90
0	9706	423208.662718772559	89
0	9730	424500	88
0	9736	424632.68367582523	87
0	9742	424692.133998635158	86
0	9748	424708.662718772559	85
0	9772	426000	84
0	9780	426132.68367582523	83
0	9786	426192.133998635158	82
0	9790	426208.662718772559	81
0	9814	427500	80
0	9820	427632.68367582523	79
0	9826	427692.133998635158	78
0	9830	427708.662718772559	77
0	9844	429000	76
0	9848	429132.68367582523	75
0	9854	429192.133998635158	74
0	9860	429208.662718772559	73
0	9878	430500	72
0	9884	430632.68367582523	71
0	9888	430692.133998635158	70
0	9892	430708.662718772559	69
0	9910	432000	68
0	9916	432132.68367582523	67
0	9922	432192.133998635158	66
0	9928	432208.662718772559	65
0	9944	433500	64
0	9950	433632.68367582523	63
0	9956	433692.133998635158	62
0	9960	433708.662718772559	61
0	9984	435000	60
0	9992	435132.68367582523	59
0	9996	435192.133998635158	58
0	10000	435208.662718772559	57
0	10022	436500	56
0	10028	436632.68367582523	55
0	10032	436692.133998635158	54
0	10036	436708.662718772559	53
0	10048	438000	52
0	10054	438132.68367582523	51
0	10060	438192.133998635158	50
0	10064	438208.662718772559	49
0	10078	439500	48
0	10084	439632.68367582523	47
0	10090	439692.133998635158	46
0	10094	439708.662718772559	45
0	10114	441000	44
0	10120	441132.68367582523	43
0	10124	441192.133998635158	42
0	10128	441208.662718772559	41
0	10142	442500	40
0	10146	442632.68367582523	39
0	10152	442692.133998635158	38
0	10156	442708.662718772559	37
0	10172	444000	36
0	10176	444132.68367582523	35
0	10180	444192.133998635158	34
0	10184	444208.662718772559	33
0	10214	445500	32
0	10220	445632.68367582523	31
0	10224	445692.133998635158	30
0	10228	445708.662718772559	29
0	10248	447000	28
0	10254	447132.68367582523	27
0	10260	447192.133998635158	26
0	10264	447208.662718772559	25
0	10290	448500	24
0	10294	448632.68367582523	23
0	10300	448692.133998635158	22
0	10306	448708.662718772559	21
0	10326	450000	20
0	10332	450132.68367582523	19
0	10336	450192.133998635158	18
0	10340	450208.662718772559	17
0	10370	451500	16
0	10376	451632.68367582523	15
0	10380	451692.133998635158	14
0	10384	451708.662718772559	13
0	10406	453000	12
0	10410	453132.68367582523	11
0	10414	453192.133998635158	10
0	10418	453208.662718772559	9
0	10438	454500	8
0	10444	454632.68367582523	7
0	10450	454692.133998635158	6
0	10454	454708.662718772559	5
0	10476	456000	4
0	10480	456132.68367582523	3
0	10486	456192.133998635158	2
0	10490	456208.662718772559	1
0	10506	457500	0
1	0	0	0
1	4592	201600	1
1	4595	202125.442159954127	2
1	4597	202297.316465808107	3
1	4611	202703.788748821729	4
1	4617	202711.675824713099	5
1	4619	202903.214937951057	6
1	4621	203284.362660697851	7
1	4623	203431.991697922792	8
1	4625	203826.764916630366	9
1	4631	204045.164093355914	10
1	4633	204109.726244274918	11
1	4639	204163.944897559888	12
1	4649	204221.046457255211	13
1	4651	204297.561063340065	14
1	4653	204462.661609690484	15
1	4655	204510.364460251245	16
1	4657	204617.5384582444	17
1	4659	204738.212556897311	18
1	4661	205006.36475221324	19
1	4663	205194.589943904308	20
1	4665	205323.961263401603	21
1	4667	205414.349695231518	22
1	4669	205417.353280567848	23
1	4687	205813.39986608048	24
1	4689	205876.252390226133	25
1	4691	205889.133805708067	26
1	4693	206100.0488553053	27
1	4695	206156.495980297643	28
1	4697	206881.275378293479	29
1	4699	206992.6719578579	30
1	4717	207638.505835332825	31
1	4719	208108.863275407789	32
1	4737	208797.842292330914	33
1	4739	208847.384154884445	34
1	4741	208933.888044909203	35
1	4743	209122.034099481039	36
1	4745	209154.501741140163	37
1	4747	209181.347302472659	38
1	4749	209189.800067598952	39
1	4751	209404.001420233485	40
1	4753	209452.559644433922	41
1	4755	209770.680202619885	42
1	4757	209811.715981449849	43
1	4759	209855.775269201259	44
1	4769	210134.084348304879	45
1	4771	210183.345276112813	46
1	4777	210204.342891862995	47
1	4783	210244.367784724667	48
1	4785	210501.572806076446	49
1	4787	210551.790297674503	50
1	4789	210749.879132312903	51
1	4791	210882.186830733584	52
1	4793	211043.843209673223	53
1	4795	211079.077667798395	54
1	4797	211121.088788223854	55
1	4799	211379.956074142781	56
1	4801	211404.649049083691	57
1	4807	211529.507766571417	58
1	4809	211609.117114542197	59
1	4823	211748.658482888911	60
1	4825	211855.112728564422	61
1	4827	211898.813493771585	62
1	4829	212042.896439920094	63
1	4831	212049.235742137623	64
1	4833	212059.637965619355	65
1	4835	212285.80599138552	66
1	4837	212356.415111642462	67
1	4839	212382.94188312527	68
1	4841	212705.469350934593	69
1	4843	212983.147749547041	70
1	4849	213046.968678327569	71
1	4863	213386.122116408803	72
1	4865	213416.02873661047	73
1	4867	213431.943910587046	74
1	4869	213540.217885346642	75
1	4871	213679.741341945738	76
1	4873	213716.183584522903	77
1	4875	213956.833385348826	78
1	4877	214093.599159847918	79
1	4879	214479.390881306951	80
1	4897	215082.229057166963	81
1	4899	215253.350885936502	82
1	4901	215421.933928635937	83
1	4903	215476.983007724254	84
1	4905	215529.407753160948	85
1	4907	215764.944437333037	86
1	4909	215776.927989655268	87
1	4911	215935.738267314506	88
1	4917	216055.072493046059	89
1	4919	216118.240664780103	90
1	4933	216248.318933827262	91
1	4935	216610.69484018345	92
1	4937	216779.889585701669	93
1	4939	216851.338977523428	94
1	4941	217123.799605422027	95
1	4943	217173.201851494507	96
1	4945	217179.908689240903	97
1	4947	217265.483726458594	98
1	4949	217350.718256532599	99
1	4959	217675.155144275375	100
1	4969	217766.498430416862	101
1	4971	217792.656043388584	102
1	4973	217964.710061167804	103
1	4975	217980.784966421634	104
1	4977	218607.565699561211	105
1	4979	218848.066281208973	106
1	4981	218850.253168947656	107
1	4999	219253.294686545751	108
1	5001	219367.583787762351	109
1	5003	219621.478226635551	110
1	5005	219861.274130224309	111
1	5007	219864.099985967051	112
1	5009	219952.862040621728	113
1	5011	220031.946291115419	114
1	5013	220038.734319129657	115
1	5015	220038.974506827189	116
1	5017	220218.571813462918	117
1	5019	220282.703818115535	118
1	5025	220564.004907680506	119
1	5039	221032.014713947562	120
1	5041	221186.746281186849	121
1	5043	221207.891194907642	122
1	5045	221287.562238799173	123
1	5047	221333.693454374621	124
1	5049	221377.197456058675	125
1	5051	221508.754645625968	126
1	5053	221669.05543570727	127
1	5055	221798.718413586601	128
1	5057	221811.146699286955	129
1	5059	221828.085120196472	130
1	5061	221949.354644791471	131
1	5063	221957.8118852497	132
1	5069	222027.995967147206	133
1	5075	222141.817837109765	134
1	5085	222220.006450535055	135
1	5087	222325.327293503149	136
1	5089	222337.670591537554	137
1	5091	222365.565572273708	138
1	5093	222376.062633790994	139
1	5095	222545.322734404031	140
1	5097	222775.836945526133	141
1	5099	222885.238131757008	142
1	5101	222895.827497263979	143
1	5103	222960.721545383777	144
1	5105	223177.83589285679	145
1	5107	223250.680573064612	146
1	5109	223331.319468410158	147
1	5111	223352.11608350545	148
1	5113	223356.075611660329	149
1	5115	223468.39458135823	150
1	5125	223632.707528355329	151
1	5131	223705.104265160105	152
1	5137	223858.942318836888	153
1	5139	224180.790405809108	154
1	5141	224238.908636768652	155
1	5143	224243.155763420388	156
1	5145	224254.295127985727	157
1	5147	224352.269216639437	158
1	5149	224608.383984341743	159
1	5151	224634.779561755228	160
1	5153	224918.116214472438	161
1	5155	224920.722998310536	162
1	5157	224951.116169436902	163
1	5175	225338.260311829356	164
1	5177	225470.71272904422	165
1	5179	226238.866935882905	166
1	5181	226319.948860098885	167
1	5191	226662.749234289329	168
1	5201	227167.726058292843	169
1	5203	227406.276927378421	170
1	5205	227461.343735084286	171
1	5207	227633.48751169924	172
1	5213	228043.075051899444	173
1	5215	228068.406510150208	174
1	5229	228306.571612132061	175
1	5231	228528.926268491561	176
1	5233	228583.443767607544	177
1	5235	229009.438413730422	178
1	5241	229619.95248893889	179
1	5255	230322.103843923399	180
1	5257	230389.66158220573	181
1	5259	230555.293109102698	182
1	5261	230655.262074088159	183
1	5263	230754.644317243745	184
1	5265	230772.430350743925	185
1	5267	230878.791291913535	186
1	5269	230883.258191788951	187
1	5271	230932.263714861846	188
1	5273	230955.740443804087	189
1	5291	231336.326445624046	190
1	5293	231376.150657719228	191
1	5295	231541.525491359106	192
1	5297	231670.143585044179	193
1	5299	231864.124150871499	194
1	5301	231947.394805541543	195
1	5303	232024.96818996711	196
1	5305	232072.325305806058	197
1	5307	232183.843465684602	198
1	5309	232191.063506874377	199
1	5311	232235.261647091502	200
1	5313	232397.711496842741	201
1	5331	232932.429216190445	202
1	5333	233126.960297738056	203
1	5335	233229.989305414869	204
1	5337	233367.185043498656	205
1	5339	233534.843044920174	206
1	5341	233625.312829968683	207
1	5343	233960.668867407256	208
1	5345	233961.924020393895	209
1	5351	234063.86485715881	210
1	5365	234521.023833269475	211
1	5367	235046.591415687952	212
1	5369	235125.752489821496	213
1	5371	235160.762805093678	214
1	5373	235323.964095727979	215
1	5391	235737.985330713861	216
1	5393	235948.475560504217	217
1	5395	235961.754053520665	218
1	5397	236860.68326768456	219
1	5399	236875.838358365541	220
1	5401	236913.490616644436	221
1	5407	237020.106670620824	222
1	5413	237139.435120066254	223
1	5423	237325.097368925902	224
1	5425	237518.726088932319	225
1	5427	237537.609167260587	226
1	5429	237917.10722139197	227
1	5431	238019.662518289089	228
1	5433	238192.37605523236	229
1	5435	238219.445973861089	230
1	5437	238359.824544337654	231
1	5439	238360.89078144944	232
1	5441	238374.656224305695	233
1	5459	238765.197962975646	234
1	5461	238902.717839412194	235
1	5463	239033.306024455882	236
1	5465	239070.669318065806	237
1	5467	239315.519577955755	238
1	5469	239421.528421363653	239
1	5471	239583.872999601082	240
1	5473	239588.749869787	241
1	5475	239901.365927893019	242
1	5477	239939.478688714081	243
1	5479	239966.661905568038	244
1	5497	240245.282076189586	245
1	5499	240274.079054941322	246
1	5501	240300.342838780698	247
1	5503	240403.190666604474	248
1	5505	240439.770692226958	249
1	5507	240658.956938242415	250
1	5509	240765.648355948066	251
1	5511	240810.347279022674	252
1	5513	241096.514862359553	253
1	5515	241301.581455818391	254
1	5525	241660.038208171307	255
1	5531	241692.403218776754	256
1	5537	241746.421584842137	257
1	5539	241779.977735639571	258
1	5541	242424.467018456248	259
1	5543	242487.19654176321	260
1	5545	242607.018087624783	261
1	5547	242840.850442845059	262
1	5549	242889.951165194623	263
1	5567	243387.517648433428	264
1	5569	243529.71205365467	265
1	5571	243915.310210025968	266
1	5573	244056.999481609835	267
1	5575	244241.372985154449	268
1	5577	244268.629639329676	269
1	5579	244274.207884547825	270
1	5581	244300.005021408486	271
1	5583	244321.050964501554	272
1	5585	244339.915316680066	273
1	5591	244528.402660522462	274
1	5605	245119.822128504156	275
1	5607	245158.928942536755	276
1	5609	245533.491067136514	277
1	5611	245738.399124854575	278
1	5617	246007.831156097513	279
1	5619	246062.439230405979	280
1	5633	246345.163841548623	281
1	5635	246450.477477863183	282
1	5637	246496.348035249578	283
1	5639	246784.902274272405	284
1	5641	247157.518360814694	285
1	5643	247268.356236161542	286
1	5645	247294.051884455871	287
1	5647	247387.030086920174	288
1	5649	247429.301370690141	289
1	5651	247497.306921221562	290
[...]
5	28835	1741708.662718772559	640100.19519639
5	28839	1743000	640819.99180669
5	28843	1743132.68367582523	640906.91983309
5	28847	1743192.133998635158	640297.53123725
5	28851	1743208.662718772559	640115.96675164
5	28855	1744500	641072.58188955
5	28859	1744632.68367582523	640653.19570396
5	28863	1744692.133998635158	640469.26328904
5	28867	1744708.662718772559	640018.80863917
5	28871	1746000	641176.35683465
5	28875	1746132.68367582523	641119.50691167
5	28879	1746192.133998635158	641115.83771352
5	28883	1746208.662718772559	638211.44777224
5	28887	1747500	638829.50589097
5	28891	1747632.68367582523	638445.95306584
5	28895	1747692.133998635158	638261.30514089
5	28899	1747708.662718772559	638238.37277914
5	28903	1749000	638978.19939654
5	28907	1749132.68367582523	639107.29275393
5	28911	1749192.133998635158	638925.23887996
5	28915	1749208.662718772559	638598.15338754
5	28919	1750500	639523.88135738
5	28923	1750632.68367582523	639509.84087513
5	28927	1750692.133998635158	639170.83830165
5	28931	1750708.662718772559	638518.58540087
5	28935	1752000	638489.48449995
5	28939	1752132.68367582523	638444.05803399
5	28943	1752192.133998635158	638372.55214488
5	28947	1752208.662718772559	638385.98496934
5	28951	1753500	639216.5527985
5	28955	1753632.68367582523	639133.81671455
5	28959	1753692.133998635158	638611.97567047
5	28963	1753708.662718772559	638557.96765335
5	28967	1755000	639166.54327934
5	28971	1755132.68367582523	639167.8368705
5	28975	1755192.133998635158	639053.45924064
5	28979	1755208.662718772559	638578.52711694
5	28983	1756500	639602.28492085
5	28987	1756632.68367582523	638875.69811405
5	28991	1756692.133998635158	638456.12397014
5	28995	1756708.662718772559	637717.96773787
5	28999	1758000	636961.30769836
5	29003	1758132.68367582523	635587.32497737
5	29007	1758192.133998635158	635203.84723645
5	29011	1758208.662718772559	635072.91914759
5	29015	1759500	635890.70064023
5	29019	1759632.68367582523	635874.86520798
5	29023	1759692.133998635158	635597.44656748
5	29027	1759708.662718772559	635068.16757925
5	29031	1761000	636060.56656366
5	29035	1761132.68367582523	635330.57833961
5	29039	1761192.133998635158	635002.29000522
5	29043	1761208.662718772559	634734.18018698
5	29047	1762500	634555.86171338
5	29051	1762632.68367582523	633461.70448112
5	29055	1762692.133998635158	633098.63089493
5	29059	1762708.662718772559	632979.59770568
5	29063	1764000	634042.46206841
5	29067	1764132.68367582523	633657.87839254
5	29071	1764192.133998635158	633526.67533781
5	29075	1764208.662718772559	632198.30641746
5	29079	1765500	633284.55853325
5	29083	1765632.68367582523	632316.23743444
5	29087	1765692.133998635158	632316.00905556
5	29091	1765708.662718772559	632249.01984788
5	29095	1767000	632681.92772117
5	29099	1767132.68367582523	632638.3973758
5	29103	1767192.133998635158	631676.39010123
5	29107	1767208.662718772559	631626.07879152
5	29111	1768500	631746.50073645
5	29115	1768632.68367582523	630526.5921626
5	29119	1768692.133998635158	627822.9359044
5	29123	1768708.662718772559	626997.76645854
5	29127	1770000	627700.95743149
5	29131	1770132.68367582523	627743.27516643
5	29135	1770192.133998635158	627258.9671031
5	29139	1770208.662718772559	624871.04452043
5	29143	1771500	625935.46570582
5	29147	1771632.68367582523	625967.48974194
5	29151	1771692.133998635158	625745.23928002
5	29155	1771708.662718772559	624790.89208815
5	29159	1773000	625591.18260641
5	29163	1773132.68367582523	625723.59527157
5	29167	1773192.133998635158	625159.87242109
5	29171	1773208.662718772559	624655.19956564
5	29175	1774500	625536.39437808
5	29179	1774632.68367582523	625439.79493372
5	29183	1774692.133998635158	624391.25159711
5	29187	1774708.662718772559	623885.89873658
5	29191	1776000	625017.46129819
5	29195	1776132.68367582523	624470.03673222
5	29199	1776192.133998635158	623713.37824524
5	29203	1776208.662718772559	623577.08947383
5	29207	1777500	624676.11359296
5	29211	1777632.68367582523	624297.20992034
5	29215	1777692.133998635158	623879.55704055
5	29219	1777708.662718772559	623619.41620451
5	29223	1779000	624033.82553293
5	29227	1779132.68367582523	624112.92569496
5	29231	1779192.133998635158	624045.04651839
5	29235	1779208.662718772559	623758.46717725
5	29239	1780500	625022.74155474
5	29243	1780632.68367582523	624785.53370269
5	29247	1780692.133998635158	623707.56061299
5	29251	1780708.662718772559	622970.96964322
5	29255	1782000	622519.7679608
5	29259	1782132.68367582523	622647.02225533
5	29263	1782192.133998635158	621053.32061362
5	29267	1782208.662718772559	620723.28207525
5	29271	1783500	621456.67782297
5	29275	1783632.68367582523	619692.50330048
5	29279	1783692.133998635158	617725.24536035
5	29283	1783708.662718772559	616976.67209724
5	29287	1785000	617835.02119701
5	29291	1785132.68367582523	617790.20729487
5	29295	1785192.133998635158	617729.2862837
5	29299	1785208.662718772559	617519.47043122
5	29303	1786500	617623.36271338
5	29307	1786632.68367582523	617358.31170973
5	29311	1786692.133998635158	616532.76265042
5	29315	1786708.662718772559	616027.96014265
5	29319	1788000	615556.52325987
5	29323	1788132.68367582523	615449.26493613
5	29327	1788192.133998635158	615445.36817361
5	29331	1788208.662718772559	615075.29293235
5	29335	1789500	615600.25556741
5	29339	1789632.68367582523	614967.32381156
5	29343	1789692.133998635158	614059.36429266
5	29347	1789708.662718772559	612649.72733507
5	29351	1791000	613689.8274863
5	29355	1791132.68367582523	613702.87397758
5	29359	1791192.133998635158	613123.89206174
5	29363	1791208.662718772559	612508.8174061
5	29367	1792500	613374.27099618
5	29371	1792632.68367582523	611968.57515971
5	29375	1792692.133998635158	611890.94434771
5	29379	1792708.662718772559	610436.83541756
5	29383	1794000	610969.65510765
5	29387	1794132.68367582523	610572.9879494
5	29391	1794192.133998635158	610560.51852691
5	29395	1794208.662718772559	610355.03292983
5	29399	1795500	611253.42063706
5	29403	1795632.68367582523	611283.22755504
5	29407	1795692.133998635158	611316.57424427
5	29411	1795708.662718772559	611301.88273818
5	29415	1797000	611543.26199025
5	29419	1797132.68367582523	610843.3046411
5	29423	1797192.133998635158	610780.48997122
5	29427	1797208.662718772559	610191.9042439
5	29431	1798500	611334.95356012
5	29435	1798632.68367582523	611382.08558582
5	29439	1798692.133998635158	611129.18840696
5	29443	1798708.662718772559	610758.72591913
5	29447	1800000	612034.30378559
5	29451	1800132.68367582523	612142.07652717
5	29455	1800192.133998635158	611098.91117883
5	29459	1800208.662718772559	609777.18845564
5	29463	1801500	610867.58894673
5	29467	1801632.68367582523	609367.15951692
5	29471	1801692.133998635158	608605.78061195
5	29475	1801708.662718772559	608486.91798803
5	29479	1803000	608995.64601304
5	29483	1803132.68367582523	608669.41542416
5	29487	1803192.133998635158	608139.08558123
5	29491	1803208.662718772559	607355.2751771
5	29495	1804500	608538.63291802
5	29499	1804632.68367582523	608488.41509006
5	29503	1804692.133998635158	608409.58633101
5	29507	1804708.662718772559	608413.69192208
5	29511	1806000	609505.8768297
5	29515	1806132.68367582523	609373.1532096
5	29519	1806192.133998635158	608591.40588245
5	29523	1806208.662718772559	608226.59599105
5	29527	1807500	608924.13296312
5	29531	1807632.68367582523	608903.84827977
5	29535	1807692.133998635158	608592.12006902
5	29539	1807708.662718772559	606962.48194119
5	29543	1809000	607853.14906155
5	29547	1809132.68367582523	607467.12765319
5	29551	1809192.133998635158	607216.97158651
5	29555	1809208.662718772559	606979.93700789
5	29559	1810500	608219.60180252
5	29563	1810632.68367582523	608210.18551409
5	29567	1810692.133998635158	608263.24586424
5	29571	1810708.662718772559	608137.32428372
5	29575	1812000	608579.15574698
5	29579	1812132.68367582523	608456.61200501
5	29583	1812192.133998635158	607488.73053336
5	29587	1812208.662718772559	607038.52207366
5	29591	1813500	608199.12806054
5	29595	1813632.68367582523	607669.61468512
5	29599	1813692.133998635158	607652.07274992
5	29603	1813708.662718772559	606929.58610614
5	29607	1815000	607849.88655697
5	29611	1815132.68367582523	607955.32847066
5	29615	1815192.133998635158	607333.29106814
5	29619	1815208.662718772559	606681.53240734
5	29623	1816500	607856.37178371
5	29627	1816632.68367582523	607787.40285591
5	29631	1816692.133998635158	607468.23406262
5	29635	1816708.662718772559	605879.45966705
5	29639	1818000	606703.90210324
5	29643	1818132.68367582523	606515.49670636
5	29647	1818192.133998635158	605131.96520161
5	29651	1818208.662718772559	604900.92333736
5	29655	1819500	606169.06457202
5	29659	1819632.68367582523	605240.46539663
5	29663	1819692.133998635158	604631.47797334
5	29667	1819708.662718772559	604578.35544987
5	29671	1821000	605351.35582338
5	29675	1821132.68367582523	605296.40368768
5	29679	1821192.133998635158	605199.63704586
5	29683	1821208.662718772559	605135.28752117
5	29687	1822500	605325.95835334
5	29691	1822632.68367582523	604601.58022957
5	29695	1822692.133998635158	604574.26788418
5	29699	1822708.662718772559	604510.79710447
5	29703	1824000	605741.29237119
5	29707	1824132.68367582523	605841.61223809
5	29711	1824192.133998635158	605269.5396348
5	29715	1824208.662718772559	605129.38227601
5	29719	1825500	605499.30897813
5	29723	1825632.68367582523	604386.08755315
5	29727	1825692.133998635158	603894.85769514
5	29731	1825708.662718772559	602186.48400701
5	29735	1827000	603124.51237305
5	29739	1827132.68367582523	602628.60624263
5	29743	1827192.133998635158	602676.70097846
5	29747	1827208.662718772559	602394.40240764
5	29751	1828500	603458.80474819
5	29755	1828632.68367582523	602086.14548806
5	29759	1828692.133998635158	601697.90215989
5	29763	1828708.662718772559	600797.62508924
5	29767	1830000	601301.18854624
5	29771	1830132.68367582523	601291.8195308
5	29775	1830192.133998635158	600482.55211888
5	29779	1830208.662718772559	600198.19057312
5	29783	1831500	600799.6405437
5	29787	1831632.68367582523	600417.45097719
5	29791	1831692.133998635158	600440.04434092
5	29795	1831708.662718772559	598831.70273156
5	29799	1833000	599897.52385203
5	29803	1833132.68367582523	599849.57891998
5	29807	1833192.133998635158	599816.7907025
5	29811	1833208.662718772559	599581.26709166
5	29815	1834500	600871.87697321
5	29819	1834632.68367582523	600768.52396621
5	29823	1834692.133998635158	600409.58850683
5	29827	1834708.662718772559	600088.15281795
5	29831	1836000	601318.31763309
5	29835	1836132.68367582523	601428.57490171
5	29839	1836192.133998635158	600578.03823181
5	29843	1836208.662718772559	600108.23920765
5	29847	1837500	600376.38976523
5	29851	1837632.68367582523	600364.29837425
5	29855	1837692.133998635158	600136.96809609
5	29859	1837708.662718772559	599069.1729714
5	29863	1839000	599625.88891157
5	29867	1839132.68367582523	598378.72784161
5	29871	1839192.133998635158	598116.66008102
5	29875	1839208.662718772559	597724.84754489
5	29879	1840500	599011.44519601
5	29883	1840632.68367582523	598121.90990727
5	29887	1840692.133998635158	597248.98459726
5	29891	1840708.662718772559	596474.58912457
5	29895	1842000	597042.74059824
5	29899	1842132.68367582523	596362.54881103
5	29903	1842192.133998635158	596238.05733053
5	29907	1842208.662718772559	596069.6445812
5	29911	1843500	597298.51161589
5	29915	1843632.68367582523	596926.77336638
5	29919	1843692.133998635158	596642.33169095
5	29923	1843708.662718772559	596566.53532492
5	29927	1845000	597681.68670356
5	29931	1845132.68367582523	596188.194728
5	29935	1845192.133998635158	594162.05542309
5	29939	1845208.662718772559	591914.30166867
5	29943	1846500	592866.4329827
5	29947	1846632.68367582523	592946.31254244
5	29951	1846692.133998635158	592887.48338453
5	29955	1846708.662718772559	592720.81227487
5	29959	1848000	593474.54511546
5	29963	1848132.68367582523	593318.11062832
5	29967	1848192.133998635158	592763.61661829
5	29971	1848208.662718772559	592324.26228139
5	29975	1849500	593397.07441107
5	29979	1849632.68367582523	593494.28274313
5	29983	1849692.133998635158	593211.847437
5	29987	1849708.662718772559	592998.6776389
5	29991	1851000	594275.94106374
5	29995	1851132.68367582523	594166.40552096
5	29999	1851192.133998635158	594107.82791366
5	30003	1851208.662718772559	594023.78768001
5	30007	1852500	595266.96582244
5	30011	1852632.68367582523	595396.21597657
5	30015	1852692.133998635158	595022.99675274
5	30019	1852708.662718772559	593774.48403072
5	30023	1854000	594026.90899351
5	30027	1854132.68367582523	593749.67933412
5	30031	1854192.133998635158	593517.51865833
5	30035	1854208.662718772559	593225.5647965
5	30039	1855500	594150.27815756
5	30043	1855632.68367582523	592948.42710602
5	30047	1855692.133998635158	592839.33555397
5	30051	1855708.662718772559	592506.61499036
5	30055	1857000	592387.74203039
5	30059	1857132.68367582523	592266.25473514
5	30063	1857192.133998635158	592140.74419048
5	30067	1857208.662718772559	591840.11361119
5	30071	1858500	592601.36598676
5	30075	1858632.68367582523	592624.55668861
5	30079	1858692.133998635158	592183.59593565
5	30083	1858708.662718772559	592199.37926342
5	30087	1860000	593103.76115949
5	30091	1860132.68367582523	592112.29302402
5	30095	1860192.133998635158	590971.62060334
5	30099	1860208.662718772559	590787.92491932
5	30103	1861500	591750.67883857
5	30107	1861632.68367582523	591758.16886185
5	30111	1861692.133998635158	591729.43222954
5	30115	1861708.662718772559	591430.36150335
5	30119	1863000	592090.15357148
5	30123	1863132.68367582523	592150.5717864
5	30127	1863192.133998635158	591736.35262627
5	30131	1863208.662718772559	591708.67414623
5	30135	1864500	592935.5530575
5	30139	1864632.68367582523	591367.86375109
5	30143	1864692.133998635158	591339.93565502
5	30147	1864708.662718772559	591126.72682525
5	30151	1866000	592006.3955033
5	30155	1866132.68367582523	591888.03750258
5	30159	1866192.133998635158	591381.8463917
5	30163	1866208.662718772559	590118.70492693
5	30167	1867500	590323.60916851
5	30171	1867632.68367582523	589721.76358205
5	30175	1867692.133998635158	588733.40878238
5	30179	1867708.662718772559	588738.50944962
5	30183	1869000	589406.1789146
5	30187	1869132.68367582523	588910.54736036
5	30191	1869192.133998635158	587488.20738062
5	30195	1869208.662718772559	587121.34723419
5	30199	1870500	588407.36467468
5	30203	1870632.68367582523	588076.3725721
5	30207	1870692.133998635158	588089.29171744
5	30211	1870708.662718772559	587511.908893
5	30215	1872000	588202.70222998
5	30219	1872132.68367582523	588256.11704793
5	30223	1872192.133998635158	587479.08492523
5	30227	1872208.662718772559	586855.17582784
5	30231	1873500	587853.24679212
5	30235	1873632.68367582523	587882.23174709
5	30239	1873692.133998635158	587341.33648657
5	30243	1873708.662718772559	587066.68787749
5	30247	1875000	588131.91975345
5	30251	1875132.68367582523	586939.15018859
5	30255	1875192.133998635158	586642.54126553
5	30259	1875208.662718772559	586407.91855922
5	30263	1876500	587370.50910248
5	30267	1876632.68367582523	587410.06512024
5	30271	1876692.133998635158	587041.69793934
5	30275	1876708.662718772559	586804.41343318
5	30279	1878000	588005.93866271
5	30283	1878132.68367582523	587708.76897994
5	30287	1878192.133998635158	587317.93754755
5	30291	1878208.662718772559	586552.61934575
5	30295	1879500	587826.96881236
5	30299	1879632.68367582523	587599.43981137
5	30303	1879692.133998635158	586050.77263752
5	30307	1879708.662718772559	584593.72642534
5	30311	1881000	585859.75808692
5	30315	1881132.68367582523	585487.44956664
5	30319	1881192.133998635158	585460.08781979
5	30323	1881208.662718772559	584793.78884684
5	30327	1882500	585948.98279406
5	30331	1882632.68367582523	585355.08416123
5	30335	1882692.133998635158	585366.8523156
5	30339	1882708.662718772559	584984.65092503
5	30343	1884000	585990.21340742
5	30347	1884132.68367582523	585900.65832016
5	30351	1884192.133998635158	585512.3873373
5	30355	1884208.662718772559	585041.97773029
5	30359	1885500	586229.39104416
5	30363	1885632.68367582523	586281.84285895
5	30367	1885692.133998635158	586145.35685054
5	30371	1885708.662718772559	585954.81355481
5	30375	1887000	586962.66273499
5	30379	1887132.68367582523	586728.85759968
5	30383	1887192.133998635158	586128.09569807
5	30387	1887208.662718772559	585547.98060184
5	30391	1888500	585431.54061779
5	30395	1888632.68367582523	585145.84426667
5	30399	1888692.133998635158	585168.63877509
5	30403	1888708.662718772559	585181.83259159
5	30407	1890000	586280.59293811
5	30411	1890132.68367582523	586128.17841228
5	30415	1890192.133998635158	586079.14930795
5	30419	1890208.662718772559	585679.31328358
5	30423	1891500	585549.0215623
5	30427	1891632.68367582523	585353.98658018
5	30431	1891692.133998635158	585107.08417896
5	30435	1891708.662718772559	584044.7934289
5	30439	1893000	585191.4339906
5	30443	1893132.68367582523	585272.9931244
5	30447	1893192.133998635158	583842.88227506
5	30451	1893208.662718772559	583827.27877199
5	30455	1894500	584640.7013695
5	30459	1894632.68367582523	584645.91030401
5	30463	1894692.133998635158	584542.2459157
5	30467	1894708.662718772559	584045.86700849
5	30471	1896000	584881.24184638
5	30475	1896132.68367582523	584967.72227264
5	30479	1896192.133998635158	584949.07111424
5	30483	1896208.662718772559	584938.26424163
5	30487	1897500	585629.7649732
5	30491	1897632.68367582523	584949.46725216
5	30495	1897692.133998635158	584828.97292861
5	30499	1897708.662718772559	584028.32969392
5	30503	1899000	584915.58577547
5	30507	1899132.68367582523	584975.62729923
5	30511	1899192.133998635158	584806.01285418
5	30515	1899208.662718772559	584645.13627118
5	30519	1900500	585735.40376032
5	30523	1900632.68367582523	585576.98740033
5	30527	1900692.133998635158	585203.9311927
5	30531	1900708.662718772559	584831.25503922
5	30535	1902000	585792.50025334
5	30539	1902132.68367582523	585686.24819544
5	30543	1902192.133998635158	585659.89230475
5	30547	1902208.662718772559	585278.00713437
5	30551	1903500	586026.86901909
5	30555	1903632.68367582523	585833.34240774
5	30559	1903692.133998635158	585017.4018183
5	30563	1903708.662718772559	584283.82342777
5	30567	1905000	584933.92735093
5	30571	1905132.68367582523	584170.89942377
5	30575	1905192.133998635158	584146.19858898
5	30579	1905208.662718772559	584000.6557911
5	30583	1906500	583901.88303541
5	30587	1906632.68367582523	583694.35634896
5	30591	1906692.133998635158	581605.79393058
5	30595	1906708.662718772559	580178.06933421
5	30599	1908000	581272.7501497
5	30603	1908132.68367582523	580913.88323603
5	30607	1908192.133998635158	580616.67627261
5	30611	1908208.662718772559	580350.90795589
5	30615	1909500	580992.1706672
5	30619	1909632.68367582523	580632.48140651
5	30623	1909692.133998635158	580210.58911432
5	30627	1909708.662718772559	579285.56401105
5	30631	1911000	580329.53214729
5	30635	1911132.68367582523	580305.15764258
5	30639	1911192.133998635158	579267.58582003
5	30643	1911208.662718772559	578847.97180702
5	30647	1912500	579884.12269235
5	30651	1912632.68367582523	579861.31001336
5	30655	1912692.133998635158	579477.52215831
5	30659	1912708.662718772559	579333.3451069
5	30663	1914000	579468.51232027
5	30667	1914132.68367582523	578912.51793695
5	30671	1914192.133998635158	578924.27363968
5	30675	1914208.662718772559	578094.69338409
5	30679	1915500	579369.79046046
5	30683	1915632.68367582523	578956.6332628
5	30687	1915692.133998635158	578939.24676893
5	30691	1915708.662718772559	578549.64132655
5	30695	1917000	579381.65213405
5	30699	1917132.68367582523	578612.00784454
5	30703	1917192.133998635158	577923.34862174
5	30707	1917208.662718772559	577661.34942295
5	30711	1918500	578259.16930525
5	30715	1918632.68367582523	577149.12146558
5	30719	1918692.133998635158	576120.38769763
5	30723	1918708.662718772559	576063.45120868
5	30727	1920000	577211.58413806
5	30731	1920132.68367582523	576746.5497219
5	30735	1920192.133998635158	574576.9497534
5	30739	1920208.662718772559	574555.81429773
5	30743	1921500	575790.38444179
5	30747	1921632.68367582523	574607.47060369
5	30750	1921692.133998635158	573524.08816944
5	30753	1921708.662718772559	572239.40104276
5	30756	1923000	570389.79061506
5	30759	1923132.68367582523	570401.59633435

