version 2
run General-0-20210517-19:15:54-524
attr configname General
attr datetime 20210517-19:15:54
attr experiment General
attr inifile Final_Project_4.ini
attr iterationvars ""
attr iterationvarsf ""
attr measurement ""
attr network Network3
attr processid 524
attr repetition 0
attr replication #0
attr resultdir results
attr runnumber 0
attr seedset 245
param **.SourceA.interArrivalTime exponential(163.9s)
param **.SourceB.interArrivalTime exponential(159.7s)
param **.SourceC.interArrivalTime exponential(555.6s)
param **.server.serviceTime 1500s
param **.server1.serviceTime 1500s
param **.server2.serviceTime 1500s
param **.server3.serviceTime 1500s
param **.SourceA.jobType 0
param **.SourceB.jobType 1
param **.SourceC.jobType 2
param **.SourceA.startTime 0s
param **.SourceA.stopTime 201599s
param **.SourceB.startTime 201600s
param **.SourceB.stopTime 604799s
param **.SourceC.startTime 604800s
param **.SourceC.stopTime 1353599s

statistic Network3.final_Project_4_SinkA "End-to-End Delay"
field count 0
field mean nan
field stddev nan
field min nan
field max nan
field sum 0
field sqrsum 0
statistic Network3.final_Project_4_SinkA "End-to-End Delay"
field count 1
field mean 1500
field stddev nan
field min 1500
field max 1500
field sum 1500
field sqrsum 2250000
statistic Network3.final_Project_4_SinkA "End-to-End Delay"
field count 2
field mean 1500
field stddev 0
field min 1500
field max 1500
field sum 3000
field sqrsum 4500000
statistic Network3.final_Project_4_SinkA "End-to-End Delay"
field count 3
field mean 1500
field stddev 0
field min 1500
field max 1500
field sum 4500
field sqrsum 6750000
statistic Network3.final_Project_4_SinkA "End-to-End Delay"
field count 4
field mean 1500
field stddev 0
field min 1500
field max 1500
field sum 6000
field sqrsum 9000000
statistic Network3.final_Project_4_SinkA "End-to-End Delay"
field count 5
field mean 1686.4476691503
field stddev 416.90966246637
field min 1500
field max 2432.2383457513
field sum 8432.2383457513
field sqrsum 14915783.370543
statistic Network3.final_Project_4_SinkA "End-to-End Delay"
field count 6
field mean 1823.8002794914
field stddev 502.24035155636
field min 1500
field max 2510.5633311973
field sum 10942.801676949
field sqrsum 21218711.610495
statistic Network3.final_Project_4_SinkA "End-to-End Delay"
field count 7
field mean 1869.2410399506
field stddev 473.98155511294
field min 1500
field max 2510.5633311973
field sum 13084.687279654
field sqrsum 25806385.545572
statistic Network3.final_Project_4_SinkA "End-to-End Delay"
field count 8
field mean 1901.9340312094
field stddev 448.45857611873
field min 1500
field max 2510.5633311973
field sum 15215.472249676
field sqrsum 30346630.134042
statistic Network3.final_Project_4_SinkA "End-to-End Delay"
field count 9
field mean 2039.7972341654
field stddev 589.09428128798
field min 1500
field max 3142.7028578134
field sum 18358.175107489
field sqrsum 40223211.38655
statistic Network3.final_Project_4_SinkA "End-to-End Delay"
field count 10
field mean 2147.6350169309
field stddev 651.7383117674
field min 1500
field max 3142.7028578134
field sum 21476.350169309
field sqrsum 49946227.102706
statistic Network3.final_Project_4_SinkA "End-to-End Delay"
field count 11
field mean 2236.6863167855
field stddev 685.21384865362
field min 1500
field max 3142.7028578134
field sum 24603.549484641
field sqrsum 59725602.660519
statistic Network3.final_Project_4_SinkA "End-to-End Delay"
field count 12
field mean 2286.6518226634
field stddev 675.86476716967
field min 1500
field max 3142.7028578134
field sum 27439.821871961
field sqrsum 67770043.715593
statistic Network3.final_Project_4_SinkA "End-to-End Delay"
field count 13
field mean 2417.4715179623
field stddev 800.75363857518
field min 1500
field max 3987.3078615488
field sum 31427.12973351
field sqrsum 83668667.698362
statistic Network3.final_Project_4_SinkA "End-to-End Delay"
field count 14
field mean 2522.2590305885
field stddev 863.48638697261
field min 1500
field max 3987.3078615488
field sum 35311.626428239
field sqrsum 98757982.269724
statistic Network3.final_Project_4_SinkA "End-to-End Delay"
field count 15
field mean 2595.9112746194
field stddev 879.61398867416
field min 1500
field max 3987.3078615488
field sum 38938.669119292
field sqrsum 111913420.95244
statistic Network3.final_Project_4_SinkA "End-to-End Delay"
field count 16
field mean 2655.5936940964
field stddev 882.68411313476
field min 1500
field max 3987.3078615488
field sum 42489.499105542
field sqrsum 124521814.5437
statistic Network3.final_Project_4_SinkA "End-to-End Delay"
field count 17
field mean 2783.7105696298
field stddev 1004.7250446745
field min 1500
field max 4833.5805781638
field sum 47323.079683706
field sqrsum 147885315.7493
statistic Network3.final_Project_4_SinkA "End-to-End Delay"
field count 18
field mean 2902.9306678664
field stddev 1098.1500161191
field min 1500
field max 4929.6723378885
field sum 52252.752021595
field sqrsum 172186985.10825
statistic Network3.final_Project_4_SinkA "End-to-End Delay"
field count 19
field mean 2999.6191623669
field stddev 1147.4152644498
field min 1500
field max 4929.6723378885
field sum 56992.76408497
field sqrsum 194654699.46919
statistic Network3.final_Project_4_SinkA "End-to-End Delay"
field count 20
field mean 3086.5264716934
field stddev 1182.5086349106
field min 1500
field max 4929.6723378885
field sum 61730.529433867
field sqrsum 217101119.9704
statistic Network3.final_Project_4_SinkA "End-to-End Delay"
field count 21
field mean 3221.3003823009
field stddev 1307.614042692
field min 1500
field max 5916.7785944508
field sum 67647.308028318
field sqrsum 252109388.90615
statistic Network3.final_Project_4_SinkA "End-to-End Delay"
field count 22
field mean 3326.1264912725
field stddev 1367.5452940237
field min 1500
field max 5916.7785944508
field sum 73174.782807995
field sqrsum 282662366.34612
statistic Network3.final_Project_4_SinkA "End-to-End Delay"
field count 23
field mean 3424.3810544287
field stddev 1416.7614494288
field min 1500
field max 5916.7785944508
field sum 78760.764251861
field sqrsum 313865555.03733
statistic Network3.final_Project_4_SinkA "End-to-End Delay"
field count 24
field mean 3513.2180105287
field stddev 1452.3604884505
field min 1500
field max 5916.7785944508
field sum 84317.232252689
field sqrsum 344739891.68156
statistic Network3.final_Project_4_SinkA "End-to-End Delay"
field count 25
field mean 3637.9497032084
field stddev 1552.5499163839
field min 1500
field max 6631.5103275211
field sum 90948.74258021
field sqrsum 388716820.90558
statistic Network3.final_Project_4_SinkA "End-to-End Delay"
field count 26
field mean 3756.0373169531
field stddev 1636.0185178252
field min 1500
field max 6708.2276605709
field sum 97656.970240781
field sqrsum 433717139.25163
statistic Network3.final_Project_4_SinkA "End-to-End Delay"
field count 27
field mean 3865.8634847309
field stddev 1702.7273295765
field min 1500
field max 6721.3438469528
field sum 104378.31408773
field sqrsum 478893602.3606
statistic Network3.final_Project_4_SinkA "End-to-End Delay"
field count 28
field mean 3966.3601492286
field stddev 1753.4787802989
field min 1500
field max 6721.3438469528
field sum 111058.0841784
field sqrsum 523512930.82477
statistic Network3.final_Project_4_SinkA "End-to-End Delay"
field count 29
field mean 4094.2620269365
field stddev 1854.5310384367
field min 1500
field max 7675.514602757
field sum 118733.59878116
field sqrsum 582426455.24191
statistic Network3.final_Project_4_SinkA "End-to-End Delay"
field count 30
field mean 4209.5227330019
field stddev 1928.5331825191
field min 1500
field max 7675.514602757
field sum 126285.68199006
field sqrsum 639460416.03603
statistic Network3.final_Project_4_SinkA "End-to-End Delay"
field count 31
field mean 4316.1634075339
field stddev 1986.908351924
field min 1500
field max 7675.514602757
field sum 133801.06563355
field sqrsum 695941407.34495
statistic Network3.final_Project_4_SinkA "End-to-End Delay"
field count 32
field mean 4414.4836915656
field stddev 2032.1900405991
field min 1500
field max 7675.514602757
field sum 141263.4781301
field sqrsum 751629007.61356
statistic Network3.final_Project_4_SinkA "End-to-End Delay"
field count 33
field mean 4544.8830224152
field stddev 2135.8538680968
field min 1500
field max 8717.6616096017
field sum 149981.1397397
field sqrsum 827626631.55309
statistic Network3.final_Project_4_SinkA "End-to-End Delay"
field count 34
field mean 4667.0801014242
field stddev 2220.6587977747
field min 1500
field max 8717.6616096017
field sum 158680.72344842
field sqrsum 903309388.25815
statistic Network3.final_Project_4_SinkA "End-to-End Delay"
field count 35
field mean 4781.798028113
field stddev 2290.60987634
field min 1500
field max 8717.6616096017
field sum 167362.93098396
field sqrsum 978690115.94823
statistic Network3.final_Project_4_SinkA "End-to-End Delay"
field count 36
field mean 4871.4051978189
field stddev 2320.784861802
field min 1500
field max 8717.6616096017
field sum 175370.58712148
field sqrsum 1042812672.7651
statistic Network3.final_Project_4_SinkA "End-to-End Delay"
field count 37
field mean 4986.3892836384
field stddev 2392.8267104569
field min 1500
field max 9125.8163731403
field sum 184496.40349462
field sqrsum 1126093197.2414
statistic Network3.final_Project_4_SinkA "End-to-End Delay"
field count 38
field mean 5096.5716532817
field stddev 2456.0535545579
field min 1500
field max 9173.3193300814
field sum 193669.7228247
field sqrsum 1210242984.773
statistic Network3.final_Project_4_SinkA "End-to-End Delay"
field count 39
field mean 5197.4599578568
field stddev 2504.0799772086
field min 1500
field max 9173.3193300814
field sum 202700.93835642
field sqrsum 1291805838.7533
statistic Network3.final_Project_4_SinkA "End-to-End Delay"
field count 40
field mean 5283.8933514545
field stddev 2531.4947920795
field min 1500
field max 9173.3193300814
field sum 211355.73405818
field sqrsum 1366711327.3925
statistic Network3.final_Project_4_SinkA "End-to-End Delay"
field count 41
field mean 5395.6608519431
field stddev 2600.0817633398
field min 1500
field max 9866.3608714888
field sum 221222.09492967
field sqrsum 1464056404.2389
statistic Network3.final_Project_4_SinkA "End-to-End Delay"
field count 42
field mean 5487.0835627408
field stddev 2635.6360642561
field min 1500
field max 9866.3608714888
field sum 230457.50963511
field sqrsum 1549349289.0205
statistic Network3.final_Project_4_SinkA "End-to-End Delay"
field count 43
field mean 5570.2129549854
field stddev 2660.5138758266
field min 1500
field max 9866.3608714888
field sum 239519.15706437
field sqrsum 1631462743.1527
statistic Network3.final_Project_4_SinkA "End-to-End Delay"
field count 44
field mean 5649.2560875746
field stddev 2681.1612414285
field min 1500
field max 9866.3608714888
field sum 248567.26785328
field sqrsum 1713331052.0011
statistic Network3.final_Project_4_SinkA "End-to-End Delay"
field count 45
field mean 5751.7385046385
field stddev 2738.2232942663
field min 1500
field max 10260.964855452
field sum 258828.23270873
field sqrsum 1818618451.7659
statistic Network3.final_Project_4_SinkA "End-to-End Delay"
field count 46
field mean 5851.0280960645
field stddev 2790.1137975446
field min 1500
field max 10319.059710231
field sum 269147.29241897
field sqrsum 1925101445.0692
statistic Network3.final_Project_4_SinkA "End-to-End Delay"
field count 47
field mean 5946.4536120168
field stddev 2836.1038417285
field min 1500
field max 10336.027345825
field sum 279483.31976479
field sqrsum 2031934906.3629
statistic Network3.final_Project_4_SinkA "End-to-End Delay"
field count 48
field mean 6031.5245815052
field stddev 2867.0065181486
field min 1500
field max 10336.027345825
field sum 289513.17991225
field sqrsum 2132533000.9405
statistic Network3.final_Project_4_SinkA "End-to-End Delay"
field count 49
field mean 6137.0371121636
field stddev 2931.5514472368
field min 1500
field max 11201.638583767
field sum 300714.81849602
field sqrsum 2258009707.9018
statistic Network3.final_Project_4_SinkA "End-to-End Delay"
field count 50
field mean 6239.5313878644
field stddev 2990.6287106566
field min 1500
field max 11261.7508972
field sum 311976.56939322
field sqrsum 2384836741.1724
statistic Network3.final_Project_4_SinkA "End-to-End Delay"
field count 51
field mean 6338.5806597878
field stddev 3043.9007137225
field min 1500
field max 11291.04425596
field sum 323267.61364918
field sqrsum 2512324421.5625
statistic Network3.final_Project_4_SinkA "End-to-End Delay"
field count 52
field mean 6433.4032250951
field stddev 3090.5027049998
field min 1500
field max 11291.04425596
field sum 334536.96770495
field sqrsum 2639322762.3967
statistic Network3.final_Project_4_SinkA "End-to-End Delay"
field count 53
field mean 6548.394790904
field stddev 3173.0666717678
field min 1500
field max 12527.956212964
field sum 347064.92391791
field sqrsum 2796272449.2706
statistic Network3.final_Project_4_SinkA "End-to-End Delay"
field count 54
field mean 6661.3620646565
field stddev 3250.7706567183
field min 1500
field max 12648.627573542
field sum 359713.55149145
field sqrsum 2956260228.7648
statistic Network3.final_Project_4_SinkA "End-to-End Delay"
field count 55
field mean 6771.2987679129
field stddev 3322.130275178
field min 1500
field max 12707.880743757
field sum 372421.43223521
field sqrsum 3117750461.7623
statistic Network3.final_Project_4_SinkA "End-to-End Delay"
field count 56
field mean 6876.4025276223
field stddev 3384.4505971853
field min 1500
field max 12707.880743757
field sum 385078.54154685
field sqrsum 3277952877.8892
statistic Network3.final_Project_4_SinkA "End-to-End Delay"
field count 57
field mean 6991.8513728562
field stddev 3465.4988013145
field min 1500
field max 13456.986705953
field sum 398535.5282528
field sqrsum 3459043369.0934
statistic Network3.final_Project_4_SinkA "End-to-End Delay"
field count 58
field mean 7103.8081077587
field stddev 3539.2055289166
field min 1500
field max 13485.341997197
field sum 412020.87025
field sqrsum 3640897817.8748
statistic Network3.final_Project_4_SinkA "End-to-End Delay"
field count 59
field mean 7210.6514050913
field stddev 3603.265823838
field min 1500
field max 13485.341997197
field sum 425428.43290039
field sqrsum 3820660554.0988
statistic Network3.final_Project_4_SinkA "End-to-End Delay"
field count 60
field mean 7310.037425153
field stddev 3654.6025388986
field min 1500
field max 13485.341997197
field sum 438602.24550918
field sqrsum 3994209892.7504
statistic Network3.final_Project_4_SinkA "End-to-End Delay"
field count 61
field mean 7425.3807802848
field stddev 3734.3094657503
field min 1500
field max 14345.982088193
field sum 452948.22759737
field sqrsum 4200017094.8251
statistic Network3.final_Project_4_SinkA "End-to-End Delay"
field count 62
field mean 7536.4658394476
field stddev 3805.4609090223
field min 1500
field max 14345.982088193
field sum 467260.88204575
field sqrsum 4404869172.1839
statistic Network3.final_Project_4_SinkA "End-to-End Delay"
field count 63
field mean 7643.135488915
field stddev 3868.4363392654
field min 1500
field max 14345.982088193
field sum 481517.53580164
field sqrsum 4608121348.4993
statistic Network3.final_Project_4_SinkA "End-to-End Delay"
field count 64
field mean 7745.8944296427
field stddev 3924.6738464702
field min 1500
field max 14345.982088193
field sum 495737.24349713
field sqrsum 4810321435.4444
statistic Network3.final_Project_4_SinkA "End-to-End Delay"
field count 65
field mean 7860.2037333924
field stddev 4001.4649834394
field min 1500
field max 15175.999173372
field sum 510913.2426705
field sqrsum 5040632386.3546
statistic Network3.final_Project_4_SinkA "End-to-End Delay"
field count 66
field mean 7973.0258991869
field stddev 4074.9836001028
field min 1500
field max 15306.466675829
field sum 526219.70934633
field sqrsum 5274920308.4529
statistic Network3.final_Project_4_SinkA "End-to-End Delay"
field count 67
field mean 8083.0732657926
field stddev 4143.1016547441
field min 1500
field max 15346.199461773
field sum 541565.90880811
field sqrsum 5510426146.3734
statistic Network3.final_Project_4_SinkA "End-to-End Delay"
field count 68
field mean 8190.0784780314
field stddev 4205.674832171
field min 1500
field max 15359.427698029
field sum 556925.33650614
field sqrsum 5746338165.5844
statistic Network3.final_Project_4_SinkA "End-to-End Delay"
field count 69
field mean 8311.6784999953
field stddev 4295.097269627
field min 1500
field max 16580.479993538
field sum 573505.81649967
field sqrsum 6021250482.4005
statistic Network3.final_Project_4_SinkA "End-to-End Delay"
field count 70
field mean 8426.8530327218
field stddev 4371.3913536614
field min 1500
field max 16580.479993538
field sum 589879.71229053
field sqrsum 6289354945.7702
statistic Network3.final_Project_4_SinkA "End-to-End Delay"
field count 71
field mean 8539.6006453926
field stddev 4442.8177407131
field min 1500
field max 16580.479993538
field sum 606311.64582288
field sqrsum 6559363385.3818
statistic Network3.final_Project_4_SinkA "End-to-End Delay"
field count 72
field mean 8649.0407073879
field stddev 4508.1009047631
field min 1500
field max 16580.479993538
field sum 622730.93093193
field sqrsum 6828956308.8742
statistic Network3.final_Project_4_SinkA "End-to-End Delay"
field count 73
field mean 8767.9169080427
field stddev 4590.4589609288
field min 1500
field max 17327.003355188
field sum 640057.93428712
field sqrsum 7129181354.1449
statistic Network3.final_Project_4_SinkA "End-to-End Delay"
field count 74
field mean 8882.4881708192
field stddev 4664.2274964241
field min 1500
field max 17327.003355188
field sum 657304.12464062
field sqrsum 7426612435.854
statistic Network3.final_Project_4_SinkA "End-to-End Delay"
field count 75
field mean 8994.508469555
field stddev 4733.0933285182
field min 1500
field max 17327.003355188
field sum 674588.13521663
field sqrsum 7725349457.4455
statistic Network3.final_Project_4_SinkA "End-to-End Delay"
field count 76
field mean 9098.5509620294
field stddev 4788.1274713579
field min 1500
field max 17327.003355188
field sum 691489.87311424
field sqrsum 8011018201.405
statistic Network3.final_Project_4_SinkA "End-to-End Delay"
field count 77
field mean 9201.5741195433
field stddev 4841.6696485969
field min 1500
field max 17327.003355188
field sum 708521.20720483
field sqrsum 8301084542.3105
statistic Network3.final_Project_4_SinkA "End-to-End Delay"
field count 78
field mean 9290.4831913052
field stddev 4873.7975621761
field min 1500
field max 17327.003355188
field sum 724657.68892181
field sqrsum 8561470584.5128
statistic Network3.final_Project_4_SinkA "End-to-End Delay"
field count 79
field mean 9370.0472774866
field stddev 4893.8196252258
field min 1500
field max 17327.003355188
field sum 740233.73492144
field sqrsum 8804083793.4955
statistic Network3.final_Project_4_SinkA "End-to-End Delay"
field count 80
field mean 9445.4317276152
field stddev 4909.2706072495
field min 1500
field max 17327.003355188
field sum 755634.53820922
field sqrsum 9041268535.4044
statistic Network3.final_Project_4_SinkA "End-to-End Delay"
field count 81
field mean 9533.9157122589
field stddev 4943.0616858508
field min 1500
field max 17327.003355188
field sum 772247.17269297
field sqrsum 9317248159.8951
statistic Network3.final_Project_4_SinkA "End-to-End Delay"
field count 82
field mean 9620.4428562632
field stddev 4974.5488114238
field min 1500
field max 17327.003355188
field sum 788876.31421358
field sqrsum 9593776507.6075
statistic Network3.final_Project_4_SinkA "End-to-End Delay"
field count 83
field mean 9702.7107299568
field stddev 5000.6097613076
field min 1500
field max 17327.003355188
field sum 805324.99058641
field sqrsum 9864335462.0257
statistic Network3.final_Project_4_SinkA "End-to-End Delay"
field count 84
field mean 9776.9789720733
field stddev 5016.7862747006
field min 1500
field max 17327.003355188
field sum 821266.23365415
field sqrsum 10118458692.571
statistic Network3.final_Project_4_SinkA "End-to-End Delay"
field count 85
field mean 9863.80767178
field stddev 5050.6789366127
field min 1500
field max 17327.003355188
field sum 838423.6521013
field sqrsum 10412835700.341
statistic Network3.final_Project_4_SinkA "End-to-End Delay"
field count 86
field mean 9949.6518763418
field stddev 5083.6012030055
field min 1500
field max 17327.003355188
field sum 855670.06136539
field sqrsum 10710274332.846
statistic Network3.final_Project_4_SinkA "End-to-End Delay"
field count 87
field mean 10028.735442674
field stddev 5107.5059948763
field min 1500
field max 17327.003355188
field sum 872499.98351262
field sqrsum 10993520612.327
statistic Network3.final_Project_4_SinkA "End-to-End Delay"
field count 88
field mean 10103.890067716
field stddev 5126.7742747476
field min 1500
field max 17327.003355188
field sum 889142.32595897
field sqrsum 11270488174.429
statistic Network3.final_Project_4_SinkA "End-to-End Delay"
field count 89
field mean 10190.545641696
field stddev 5162.6981832238
field min 1500
field max 17816.236151989
field sum 906958.56211096
field sqrsum 11587906445.052
statistic Network3.final_Project_4_SinkA "End-to-End Delay"
field count 90
field mean 10275.05521033
field stddev 5195.839064434
field min 1500
field max 17816.236151989
field sum 924754.96892974
field sqrsum 11904618540.712
statistic Network3.final_Project_4_SinkA "End-to-End Delay"
field count 91
field mean 10358.057529322
field stddev 5227.208987316
field min 1500
field max 17828.266238547
field sum 942583.23516828
field sqrsum 12222465617.784
statistic Network3.final_Project_4_SinkA "End-to-End Delay"
field count 92
field mean 10439.416821439
field stddev 5256.6559685767
field min 1500
field max 17843.112404112
field sum 960426.3475724
field sqrsum 12540842278.05
statistic Network3.final_Project_4_SinkA "End-to-End Delay"
field count 93
field mean 10532.549239703
field stddev 5304.595050744
field min 1500
field max 19100.731719945
field sum 979527.07929234
field sqrsum 12905680230.287
statistic Network3.final_Project_4_SinkA "End-to-End Delay"
field count 94
field mean 10624.993016971
field stddev 5351.5859108732
field min 1500
field max 19222.264302955
field sum 998749.3435953
field sqrsum 13275175675.22
statistic Network3.final_Project_4_SinkA "End-to-End Delay"
field count 95
field mean 10711.376066993
field stddev 5389.2197493144
field min 1500
field max 19222.264302955
field sum 1017580.7263643
field sqrsum 13629796652.214
statistic Network3.final_Project_4_SinkA "End-to-End Delay"
field count 96
field mean 10794.367076928
field stddev 5422.0998885159
field min 1500
field max 19222.264302955
field sum 1036259.2393851
field sqrsum 13978683500.879
statistic Network3.final_Project_4_SinkA "End-to-End Delay"
field count 97
field mean 10888.792920119
field stddev 5473.3720084323
field min 1500
field max 19953.673866513
field sum 1056212.9132516
field sqrsum 14376832601.65
statistic Network3.final_Project_4_SinkA "End-to-End Delay"
field count 98
field mean 10980.747681294
field stddev 5520.6534292608
field min 1500
field max 19953.673866513
field sum 1076113.2727668
field sqrsum 14772856910.487
statistic Network3.final_Project_4_SinkA "End-to-End Delay"
field count 99
field mean 11070.871006396
field stddev 5565.1340847166
field min 1500
field max 19953.673866513
field sum 1096016.2296332
field sqrsum 15168984602.511
statistic Network3.final_Project_4_SinkA "End-to-End Delay"
field count 100
field mean 11158.803596825
field stddev 5606.3442543012
field min 1500
field max 19953.673866513
field sum 1115880.3596825
field sqrsum 15563568265.127
statistic Network3.final_Project_4_SinkA "End-to-End Delay"
field count 101
field mean 11257.734498017
field stddev 5666.1543027913
field min 1500
field max 21150.824617242
field sum 1137031.1842997
field sqrsum 16010925647.117
statistic Network3.final_Project_4_SinkA "End-to-End Delay"
field count 102
field mean 11354.039418191
field stddev 5721.3148244532
field min 1500
field max 21150.824617242
field sum 1158112.0206555
field sqrsum 16455327308.575
statistic Network3.final_Project_4_SinkA "End-to-End Delay"
field count 103
field mean 11448.954497535
field stddev 5774.1182058451
field min 1500
field max 21150.824617242
field sum 1179242.3132461
field sqrsum 16901816573.541
statistic Network3.final_Project_4_SinkA "End-to-End Delay"
field count 104
field mean 11542.102016922
field stddev 5824.0105881474
field min 1500
field max 21150.824617242
field sum 1200378.6097599
field sqrsum 17348559603.857
statistic Network3.final_Project_4_SinkA "End-to-End Delay"
field count 105
field mean 11641.393429279
field stddev 5884.5668085773
field min 1500
field max 21967.700314442
field sum 1222346.3100743
field sqrsum 17831139460.962
statistic Network3.final_Project_4_SinkA "End-to-End Delay"
field count 106
field mean 11736.032086583
field stddev 5936.9791343571
field min 1500
field max 21967.700314442
field sum 1244019.4011778
field sqrsum 18300862338.943
statistic Network3.final_Project_4_SinkA "End-to-End Delay"
field count 107
field mean 11829.254386577
field stddev 5987.0750848667
field min 1500
field max 21967.700314442
field sum 1265730.2193638
field sqrsum 18772221965.246
statistic Network3.final_Project_4_SinkA "End-to-End Delay"
field count 108
field mean 11919.558768009
field stddev 6032.4783146457
field min 1500
field max 21967.700314442
field sum 1287312.346945
field sqrsum 19238010196.178
statistic Network3.final_Project_4_SinkA "End-to-End Delay"
field count 109
field mean 12018.935889585
field stddev 6093.4642326486
field min 1500
field max 22751.665019767
field sum 1310064.0119647
field sqrsum 19755648457.35
statistic Network3.final_Project_4_SinkA "End-to-End Delay"
field count 110
field mean 12116.406338371
field stddev 6150.9930145194
field min 1500
field max 22751.665019767
field sum 1332804.6972208
field sqrsum 20272787223.266
statistic Network3.final_Project_4_SinkA "End-to-End Delay"
field count 111
field mean 12209.074917986
field stddev 6200.3202978907
field min 1500
field max 22751.665019767
field sum 1355207.3158964
field sqrsum 20774664546.789
statistic Network3.final_Project_4_SinkA "End-to-End Delay"
field count 112
field mean 12298.712642264
field stddev 6244.8011120396
field min 1500
field max 22751.665019767
field sum 1377455.8159336
field sqrsum 21269660300.694
statistic Network3.final_Project_4_SinkA "End-to-End Delay"
field count 113
field mean 12397.360160096
field stddev 6304.6799445104
field min 1500
field max 23445.882157253
field sum 1400901.6980908
field sqrsum 21819369690.826
statistic Network3.final_Project_4_SinkA "End-to-End Delay"
field count 114
field mean 12493.848706816
field stddev 6360.7053662468
field min 1500
field max 23445.882157253
field sum 1424298.752577
field sqrsum 22366791849.454
statistic Network3.final_Project_4_SinkA "End-to-End Delay"
field count 115
field mean 12587.508169455
field stddev 6411.9001796269
field min 1500
field max 23445.882157253
field sum 1447563.4394874
field sqrsum 22908037506.491
statistic Network3.final_Project_4_SinkA "End-to-End Delay"
field count 116
field mean 12679.431257592
field stddev 6460.2745535064
field min 1500
field max 23445.882157253
field sum 1470814.0258807
field sqrsum 23448627274.125
statistic Network3.final_Project_4_SinkA "End-to-End Delay"
field count 117
field mean 12778.635173714
field stddev 6521.2581102096
field min 1500
field max 24286.289443789
field sum 1495100.3153245
field sqrsum 24038451129.073
statistic Network3.final_Project_4_SinkA "End-to-End Delay"
field count 118
field mean 12877.126634213
field stddev 6580.8811988613
field min 1500
field max 24400.627512591
field sum 1519500.9428371
field sqrsum 24633841752.081
statistic Network3.final_Project_4_SinkA "End-to-End Delay"
field count 119
field mean 12973.663850188
field stddev 6637.0168811697
field min 1500
field max 24400.627512591
field sum 1543865.9981724
field sqrsum 25227497673.574
statistic Network3.final_Project_4_SinkA "End-to-End Delay"
field count 120
field mean 13066.524705625
field stddev 6686.8977626806
field min 1500
field max 24400.627512591
field sum 1567982.964675
field sqrsum 25809125746.862
statistic Network3.final_Project_4_SinkA "End-to-End Delay"
field count 121
field mean 13168.317694792
field stddev 6752.4632052074
field min 1500
field max 25383.476394855
field sum 1593366.4410699
field sqrsum 26453446620.75
statistic Network3.final_Project_4_SinkA "End-to-End Delay"
field count 122
field mean 13269.506108054
field stddev 6816.7517534173
field min 1500
field max 25513.304112759
field sum 1618879.7451826
field sqrsum 27104375307.5
statistic Network3.final_Project_4_SinkA "End-to-End Delay"
field count 123
field mean 13369.418907461
field stddev 6878.5953628789
field min 1500
field max 25558.780435105
field sum 1644438.5256177
field sqrsum 27757626564.83
statistic Network3.final_Project_4_SinkA "End-to-End Delay"
field count 124
field mean 13467.812242203
field stddev 6937.6417865425
field min 1500
field max 25570.192415481
field sum 1670008.7180332
field sqrsum 28411461304.994
statistic Network3.final_Project_4_SinkA "End-to-End Delay"
field count 125
field mean 13574.328958114
field stddev 7011.4868393462
field min 1500
field max 26782.401731086
field sum 1696791.1197643
field sqrsum 29128758347.48
statistic Network3.final_Project_4_SinkA "End-to-End Delay"
field count 126
field mean 13678.412973598
field stddev 7080.4434101202
field min 1500
field max 26782.401731086
field sum 1723480.0346733
field sqrsum 29841056526.502
statistic Network3.final_Project_4_SinkA "End-to-End Delay"
field count 127
field mean 13780.904315422
field stddev 7146.2485839763
field min 1500
field max 26782.401731086
field sum 1750174.8480586
field sqrsum 30553669588.175
statistic Network3.final_Project_4_SinkA "End-to-End Delay"
field count 128
field mean 13879.815020159
field stddev 7205.4852486217
field min 1500
field max 26782.401731086
field sum 1776616.3225803
field sqrsum 31252821163.058
statistic Network3.final_Project_4_SinkA "End-to-End Delay"
field count 129
field mean 13982.687747429
field stddev 7271.7660362969
field min 1500
field max 27150.396838033
field sum 1803766.7194183
field sqrsum 31989965211.521
statistic Network3.final_Project_4_SinkA "End-to-End Delay"
field count 130
field mean 14084.07720025
field stddev 7335.1923323416
field min 1500
field max 27163.316614207
field sum 1830930.0360325
field sqrsum 32727810981.005
statistic Network3.final_Project_4_SinkA "End-to-End Delay"
field count 131
field mean 14181.970995157
field stddev 7392.331170517
field min 1500
field max 27163.316614207
field sum 1857838.2003655
field sqrsum 33451860288.776
statistic Network3.final_Project_4_SinkA "End-to-End Delay"
field count 132
field mean 14277.781429575
field stddev 7445.8796131772
field min 1500
field max 27163.316614207
field sum 1884667.1487039
field sqrsum 34171652757.72
statistic Network3.final_Project_4_SinkA "End-to-End Delay"
field count 133
field mean 14380.740984423
field stddev 7512.0572286169
field min 1500
field max 27971.402224337
field sum 1912638.5509283
field sqrsum 34954052100.116
statistic Network3.final_Project_4_SinkA "End-to-End Delay"
field count 134
field mean 14479.987979687
field stddev 7571.4335497014
field min 1500
field max 27971.402224337
field sum 1940318.389278
field sqrsum 35720225551.184
statistic Network3.final_Project_4_SinkA "End-to-End Delay"
field count 135
field mean 14577.719439587
field stddev 7628.1216344093
field min 1500
field max 27971.402224337
field sum 1967992.1243442
field sqrsum 36486061163.698
statistic Network3.final_Project_4_SinkA "End-to-End Delay"
field count 136
field mean 14673.567054323
field stddev 7681.5763841724
field min 1500
field max 27971.402224337
field sum 1995605.1193879
field sqrsum 37248538658.982
statistic Network3.final_Project_4_SinkA "End-to-End Delay"
field count 137
field mean 14777.415944024
field stddev 7749.2085183268
field min 1500
field max 28900.864943431
field sum 2024505.9843313
field sqrsum 38083798653.46
statistic Network3.final_Project_4_SinkA "End-to-End Delay"
field count 138
field mean 14877.203217145
field stddev 7809.3562332221
field min 1500
field max 28900.864943431
field sum 2053054.0439659
field sqrsum 38898790362.361
statistic Network3.final_Project_4_SinkA "End-to-End Delay"
field count 139
field mean 14973.235397264
field stddev 7862.9510925366
field min 1500
field max 28900.864943431
field sum 2081279.7202197
field sqrsum 39695479162.34
statistic Network3.final_Project_4_SinkA "End-to-End Delay"
field count 140
field mean 15066.329915817
field stddev 7911.6705588266
field min 1500
field max 28900.864943431
field sum 2109286.1882144
field sqrsum 40479841411.878
statistic Network3.final_Project_4_SinkA "End-to-End Delay"
field count 141
field mean 15166.229259261
field stddev 7972.1132801808
field min 1500
field max 29152.137341506
field sum 2138438.3255559
field sqrsum 41329688523.456
statistic Network3.final_Project_4_SinkA "End-to-End Delay"
field count 142
field mean 15265.080267889
field stddev 8030.654051113
field min 1500
field max 29203.072484381
field sum 2167641.3980402
field sqrsum 42182507965.984
statistic Network3.final_Project_4_SinkA "End-to-End Delay"
field count 143
field mean 15362.534791509
field stddev 8086.7401099086
field min 1500
field max 29203.072484381
field sum 2196842.4751858
field sqrsum 43035210872.447
statistic Network3.final_Project_4_SinkA "End-to-End Delay"
field count 144
field mean 15458.080766743
field stddev 8139.5722346707
field min 1500
field max 29203.072484381
field sum 2225963.630411
field sqrsum 43883252554.095
statistic Network3.final_Project_4_SinkA "End-to-End Delay"
field count 145
field mean 15559.187024419
field stddev 8202.1221239852
field min 1500
field max 30118.488129767
field sum 2256082.1185408
field sqrsum 44790375881.318
statistic Network3.final_Project_4_SinkA "End-to-End Delay"
field count 146
field mean 15659.63373677
field stddev 8263.4082728298
field min 1500
field max 30224.407027678
field sum 2286306.5255684
field sqrsum 45703890661.493
statistic Network3.final_Project_4_SinkA "End-to-End Delay"
field count 147
field mean 15757.924164019
field stddev 8320.8404873411
field min 1500
field max 30224.407027678
field sum 2316414.8521108
field sqrsum 46610401988.671
statistic Network3.final_Project_4_SinkA "End-to-End Delay"
field count 148
field mean 15853.115787431
field stddev 8372.9615115958
field min 1500
field max 30224.407027678
field sum 2346261.1365398
field sqrsum 47501202682.891
statistic Network3.final_Project_4_SinkA "End-to-End Delay"
field count 149
field mean 15955.062993915
field stddev 8436.9060511292
field min 1500
field max 31043.249553593
field sum 2377304.3860934
field sqrsum 48464886025.738
statistic Network3.final_Project_4_SinkA "End-to-End Delay"
field count 150
field mean 16056.496402698
field stddev 8499.8215728736
field min 1500
field max 31170.074311327
field sum 2408474.4604047
field sqrsum 49436459558.311
statistic Network3.final_Project_4_SinkA "End-to-End Delay"
field count 151
field mean 16154.874371204
field stddev 8557.261960075
field min 1500
field max 31170.074311327
field sum 2439386.0300519
field sqrsum 50391984696.361
statistic Network3.final_Project_4_SinkA "End-to-End Delay"
field count 152
field mean 16252.064901104
field stddev 8612.640644434
field min 1500
field max 31170.074311327
field sum 2470313.8649678
field sqrsum 51348515668.946
statistic Network3.final_Project_4_SinkA "End-to-End Delay"
field count 153
field mean 16355.450596935
field stddev 8678.9932944167
field min 1500
field max 32070.076363252
field sum 2502383.941331
field sqrsum 52377005466.89
statistic Network3.final_Project_4_SinkA "End-to-End Delay"
field count 154
field mean 16457.037214539
field stddev 8741.9597534427
field min 1500
field max 32070.076363252
field sum 2534383.731039
field sqrsum 53400992008.244
statistic Network3.final_Project_4_SinkA "End-to-End Delay"
field count 155
field mean 16556.956619454
field stddev 8801.8814490823
field min 1500
field max 32070.076363252
field sum 2566328.2760154
field sqrsum 54421445961.995
statistic Network3.final_Project_4_SinkA "End-to-End Delay"
field count 156
field mean 16653.603671912
field stddev 8856.0957713279
field min 1500
field max 32070.076363252
field sum 2597962.1728182
field sqrsum 55422149388.928
statistic Network3.final_Project_4_SinkA "End-to-End Delay"
field count 157
field mean 16756.84213505
field stddev 8921.939667584
field min 1500
field max 32862.042384549
field sum 2630824.2152028
field sqrsum 56502063218.612
statistic Network3.final_Project_4_SinkA "End-to-End Delay"
field count 158
field mean 16858.440186026
field stddev 8984.7034760105
field min 1500
field max 32862.042384549
field sum 2663633.5493921
field sqrsum 57578515628.556
statistic Network3.final_Project_4_SinkA "End-to-End Delay"
field count 159
field mean 16958.565447237
field stddev 9044.7755796562
field min 1500
field max 32862.042384549
field sum 2696411.9061107
field sqrsum 58652936297.73
statistic Network3.final_Project_4_SinkA "End-to-End Delay"
field count 160
field mean 17057.421153365
field stddev 9102.5843518659
field min 1500
field max 32862.042384549
field sum 2729187.3845383
field sqrsum 59727168283.891
statistic Network3.final_Project_4_SinkA "End-to-End Delay"
field count 161
field mean 17162.849989345
field stddev 9172.1719850592
field min 1500
field max 34031.463746177
field sum 2763218.8482845
field sqrsum 60885308808.598
statistic Network3.final_Project_4_SinkA "End-to-End Delay"
field count 162
field mean 17267.415240885
field stddev 9239.9940827269
field min 1500
field max 34102.420738841
field sum 2797321.2690234
field sqrsum 62048283908.847
statistic Network3.final_Project_4_SinkA "End-to-End Delay"
field count 163
field mean 17370.649592417
field stddev 9305.246590468
field min 1500
field max 34102.420738841
field sum 2831415.8835639
field sqrsum 63210726649.518
statistic Network3.final_Project_4_SinkA "End-to-End Delay"
field count 164
field mean 17471.812440458
field stddev 9366.6837745295
field min 1500
field max 34102.420738841
field sum 2865377.2402352
field sqrsum 64364100396.469
statistic Network3.final_Project_4_SinkA "End-to-End Delay"
field count 165
field mean 17579.417661847
field stddev 9439.825880743
field min 1500
field max 35226.673969582
field sum 2900603.9142048
field sqrsum 65605018955.428
statistic Network3.final_Project_4_SinkA "End-to-End Delay"
field count 166
field mean 17685.078457207
field stddev 9509.1276134051
field min 1500
field max 35226.673969582
field sum 2935723.0238964
field sqrsum 66838370820.961
statistic Network3.final_Project_4_SinkA "End-to-End Delay"
field count 167
field mean 17789.744587406
field stddev 9576.4436427046
field min 1500
field max 35226.673969582
field sum 2970887.3460968
field sqrsum 68074900376.772
statistic Network3.final_Project_4_SinkA "End-to-End Delay"
field count 168
field mean 17892.53903467
field stddev 9640.245164765
field min 1500
field max 35226.673969582
field sum 3005946.5578246
field sqrsum 69304048703.752
statistic Network3.final_Project_4_SinkA "End-to-End Delay"
field count 169
field mean 18001.722332189
field stddev 9715.7497932541
field min 1500
field max 36344.516315264
field sum 3042291.0741399
field sqrsum 70624972569.942
statistic Network3.final_Project_4_SinkA "End-to-End Delay"
field count 170
field mean 18110.149367304
field stddev 9789.5776610254
field min 1500
field max 36434.318301869
field sum 3078725.3924418
field sqrsum 71952432120.064
statistic Network3.final_Project_4_SinkA "End-to-End Delay"
field count 171
field mean 18215.858480287
field stddev 9858.1395726191
field min 1500
field max 36434.318301869
field sum 3114911.8001291
field sqrsum 73261888221.379
statistic Network3.final_Project_4_SinkA "End-to-End Delay"
field count 172
field mean 18320.108770967
field stddev 9923.9060788784
field min 1500
field max 36434.318301869
field sum 3151058.7086064
field sqrsum 74568487213.843
statistic Network3.final_Project_4_SinkA "End-to-End Delay"
field count 173
field mean 18430.251650812
field stddev 10000.503613224
field min 1500
field max 37374.826984124
field sum 3188433.5355905
field sqrsum 75965364905.936
statistic Network3.final_Project_4_SinkA "End-to-End Delay"
field count 174
field mean 18538.703323284
field stddev 10073.655084872
field min 1500
field max 37374.826984124
field sum 3225734.3782514
field sqrsum 77356717769.152
statistic Network3.final_Project_4_SinkA "End-to-End Delay"
field count 175
field mean 18645.081987943
field stddev 10142.765421549
field min 1500
field max 37374.826984124
field sum 3262889.3478901
field sqrsum 78737209537.998
statistic Network3.final_Project_4_SinkA "End-to-End Delay"
field count 176
field mean 18749.555828824
field stddev 10208.272684054
field min 1500
field max 37374.826984124
field sum 3299921.8258731
field sqrsum 80108613963.564
statistic Network3.final_Project_4_SinkA "End-to-End Delay"
field count 177
field mean 18858.897911221
field stddev 10282.650089553
field min 1500
field max 38103.104412986
field sum 3338024.9302861
field sqrsum 81560460529.471
statistic Network3.final_Project_4_SinkA "End-to-End Delay"
field count 178
field mean 18966.713659607
field stddev 10353.967636823
field min 1500
field max 38103.104412986
field sum 3376075.0314101
field sqrsum 83008270725.019
statistic Network3.final_Project_4_SinkA "End-to-End Delay"
field count 179
field mean 19073.267302297
field stddev 10422.796219495
field min 1500
field max 38103.104412986
field sum 3414114.8471111
field sqrsum 84455298303.582
statistic Network3.final_Project_4_SinkA "End-to-End Delay"
field count 180
field mean 19175.773153404
field stddev 10484.232174353
field min 1500
field max 38103.104412986
field sum 3451639.1676127
field sqrsum 85863372932.692
statistic Network3.final_Project_4_SinkA "End-to-End Delay"
field count 181
field mean 19283.063677324
field stddev 10554.240849763
field min 1500
field max 38595.357982886
field sum 3490234.5255956
field sqrsum 87352974590.519
statistic Network3.final_Project_4_SinkA "End-to-End Delay"
field count 182
field mean 19389.366242355
field stddev 10622.298119116
field min 1500
field max 38630.130512996
field sum 3528864.6561086
field sqrsum 88845261573.97
statistic Network3.final_Project_4_SinkA "End-to-End Delay"
field count 183
field mean 19493.461349623
field stddev 10686.262415697
field min 1500
field max 38630.130512996
field sum 3567303.4269809
field sqrsum 90322800680.146
statistic Network3.final_Project_4_SinkA "End-to-End Delay"
field count 184
field mean 19596.010125614
field stddev 10747.426283084
field min 1500
field max 38630.130512996
field sum 3605665.863113
field sqrsum 91794477186.133
statistic Network3.final_Project_4_SinkA "End-to-End Delay"
field count 185
field mean 19700.627266647
field stddev 10812.224257245
field min 1500
field max 38950.181216751
field sum 3644616.0443298
field sqrsum 93311593802.951
statistic Network3.final_Project_4_SinkA "End-to-End Delay"
field count 186
field mean 19804.263960923
field stddev 10875.202242191
field min 1500
field max 38977.052401856
field sum 3683593.0967316
field sqrsum 94830804416.888
statistic Network3.final_Project_4_SinkA "End-to-End Delay"
field count 187
field mean 19907.091197347
field stddev 10936.699540926
field min 1500
field max 39032.957172314
field sum 3722626.0539039
field sqrsum 96354376162.504
statistic Network3.final_Project_4_SinkA "End-to-End Delay"
field count 188
field mean 20008.802074251
field stddev 10996.210391611
field min 1500
field max 39032.957172314
field sum 3761654.7899591
field sqrsum 97877618400.569
statistic Network3.final_Project_4_SinkA "End-to-End Delay"
field count 189
field mean 20116.1500122
field stddev 11065.777239874
field min 1500
field max 40297.562346683
field sum 3801952.3523058
field sqrsum 99501511931.653
statistic Network3.final_Project_4_SinkA "End-to-End Delay"
field count 190
field mean 20222.709526229
field stddev 11133.776155725
field min 1500
field max 40362.457677701
field sum 3842314.8099835
field sqrsum 101130639921.44
statistic Network3.final_Project_4_SinkA "End-to-End Delay"
field count 191
field mean 20326.655504208
field stddev 11196.975292044
field min 1500
field max 40362.457677701
field sum 3882391.2013037
field sqrsum 102736757062.69
statistic Network3.final_Project_4_SinkA "End-to-End Delay"
field count 192
field mean 20429.511161567
field stddev 11258.200540333
field min 1500
field max 40362.457677701
field sum 3922466.1430209
field sqrsum 104342758016.33
statistic Network3.final_Project_4_SinkA "End-to-End Delay"
field count 193
field mean 20537.397541555
field stddev 11328.431324249
field min 1500
field max 41251.582499138
field sum 3963717.7255201
field sqrsum 106044451075.01
statistic Network3.final_Project_4_SinkA "End-to-End Delay"
field count 194
field mean 20644.15358142
field stddev 11396.464622667
field min 1500
field max 41251.582499138
field sum 4004965.7947955
field sqrsum 107745854293.96
statistic Network3.final_Project_4_SinkA "End-to-End Delay"
field count 195
field mean 20748.368426142
field stddev 11459.83278782
field min 1500
field max 41251.582499138
field sum 4045931.8430977
field sqrsum 109424071407.46
statistic Network3.final_Project_4_SinkA "End-to-End Delay"
field count 196
field mean 20851.531083854
field stddev 11521.294564732
field min 1500
field max 41251.582499138
field sum 4086900.0924353
field sqrsum 111102468861.25
statistic Network3.final_Project_4_SinkA "End-to-End Delay"
field count 197
field mean 20959.615426011
field stddev 11591.565067439
field min 1500
field max 42144.146488766
field sum 4129044.2389241
field sqrsum 112878597944.52
statistic Network3.final_Project_4_SinkA "End-to-End Delay"
field count 198
field mean 21066.394571656
field stddev 11659.325951176
field min 1500
field max 42144.146488766
field sum 4171146.1251879
field sqrsum 114651166771.49
statistic Network3.final_Project_4_SinkA "End-to-End Delay"
field count 199
field mean 21171.560535585
field stddev 11724.087712518
field min 1500
field max 42144.146488766
field sum 4213140.5465813
field sqrsum 116414698199.66
statistic Network3.final_Project_4_SinkA "End-to-End Delay"
field count 200
field mean 21270.087101255
field stddev 11777.308891762
field min 1500
field max 42144.146488766
field sum 4254017.4202509
field sqrsum 118085617000.66
statistic Network3.final_Project_4_SinkA "End-to-End Delay"
field count 201
field mean 21373.292579041
field stddev 11838.59810991
field min 1500
field max 42144.146488766
field sum 4296031.8083872
field sqrsum 119850825811.12
statistic Network3.final_Project_4_SinkA "End-to-End Delay"
field count 202
field mean 21474.976285663
field stddev 11897.214966161
field min 1500
field max 42144.146488766
field sum 4337945.2097039
field sqrsum 121607559021.05
statistic Network3.final_Project_4_SinkA "End-to-End Delay"
field count 203
field mean 21575.608903038
field stddev 11954.027687493
field min 1500
field max 42144.146488766
field sum 4379848.6073168
field sqrsum 123363453752.56
statistic Network3.final_Project_4_SinkA "End-to-End Delay"
field count 204
field mean 21672.838833547
field stddev 12005.140132522
field min 1500
field max 42144.146488766
field sum 4421259.1220437
field sqrsum 125078284482.51
statistic Network3.final_Project_4_SinkA "End-to-End Delay"
field count 205
field mean 21774.59677171
field stddev 12063.979914741
field min 1500
field max 42533.216156846
field sum 4463792.3382005
field sqrsum 126887358959.15
statistic Network3.final_Project_4_SinkA "End-to-End Delay"
field count 206
field mean 21875.575835226
field stddev 12121.476681526
field min 1500
field max 42576.283856021
field sum 4506368.6220565
field sqrsum 128700098906.14
statistic Network3.final_Project_4_SinkA "End-to-End Delay"
field count 207
field mean 21975.562371076
field stddev 12177.289771508
field min 1500
field max 42576.283856021
field sum 4548941.4108127
field sqrsum 130512541248.62
statistic Network3.final_Project_4_SinkA "End-to-End Delay"
field count 208
field mean 22073.77874502
field stddev 12230.14675696
field min 1500
field max 42576.283856021
field sum 4591345.9789642
field sqrsum 132310688648.73
statistic Network3.final_Project_4_SinkA "End-to-End Delay"
field count 209
field mean 22176.608939123
field stddev 12290.945779763
field min 1500
field max 43565.2893125
field sum 4634911.2682767
field sqrsum 134208623081.61
statistic Network3.final_Project_4_SinkA "End-to-End Delay"
field count 210
field mean 22278.475640143
field stddev 12350.047412295
field min 1500
field max 43568.616153468
field sum 4678479.8844301
field sqrsum 136106847395.14
statistic Network3.final_Project_4_SinkA "End-to-End Delay"
field count 211
field mean 22379.246842399
field stddev 12407.257477716
field min 1500
field max 43568.616153468
field sum 4722021.0837463
field sqrsum 138002683433.03
statistic Network3.final_Project_4_SinkA "End-to-End Delay"
field count 212
field mean 22478.85348637
field stddev 12462.49649889
field min 1500
field max 43568.616153468
field sum 4765516.9391104
field sqrsum 139894572866.88
statistic Network3.final_Project_4_SinkA "End-to-End Delay"
field count 213
field mean 22583.208598366
field stddev 12526.003926764
field min 1500
field max 44706.492341593
field sum 4810223.4314519
field sqrsum 141893243324.37
statistic Network3.final_Project_4_SinkA "End-to-End Delay"
field count 214
field mean 22687.128366199
field stddev 12588.693542334
field min 1500
field max 44822.038914693
field sum 4855045.4703666
field sqrsum 143902258496.84
statistic Network3.final_Project_4_SinkA "End-to-End Delay"
field count 215
field mean 22789.73285454
field stddev 12649.036255073
field min 1500
field max 44822.038914693
field sum 4899792.5637261
field sqrsum 145904560860.96
statistic Network3.final_Project_4_SinkA "End-to-End Delay"
field count 216
field mean 22891.312124591
field stddev 12707.584509999
field min 1500
field max 44822.038914693
field sum 4944523.4189117
field sqrsum 147905410266.6
statistic Network3.final_Project_4_SinkA "End-to-End Delay"
field count 217
field mean 22997.346852766
field stddev 12773.993457958
field min 1500
field max 45900.848138504
field sum 4990424.2670502
field sqrsum 150012298126.43
statistic Network3.final_Project_4_SinkA "End-to-End Delay"
field count 218
field mean 23102.149889371
field stddev 12838.122613202
field min 1500
field max 45900.848138504
field sum 5036268.6758829
field sqrsum 152114007947.65
statistic Network3.final_Project_4_SinkA "End-to-End Delay"
field count 219
field mean 23204.468767603
field stddev 12897.832904038
field min 1500
field max 45900.848138504
field sum 5081778.660105
field sqrsum 154185166611.55
statistic Network3.final_Project_4_SinkA "End-to-End Delay"
field count 220
field mean 23304.749558044
field stddev 12954.028640234
field min 1500
field max 45900.848138504
field sum 5127044.9027697
field sqrsum 156234199336.52
statistic Network3.final_Project_4_SinkA "End-to-End Delay"
field count 221
field mean 23409.474732464
field stddev 13017.983200298
field min 1500
field max 46449.013104785
field sum 5173493.9158745
field sqrsum 158391710154.93
statistic Network3.final_Project_4_SinkA "End-to-End Delay"
field count 222
field mean 23513.502844514
field stddev 13080.65418335
field min 1500
field max 46503.715607565
field sum 5219997.631482
field sqrsum 160554305720.24
statistic Network3.final_Project_4_SinkA "End-to-End Delay"
field count 223
field mean 23616.105060395
field stddev 13140.789405298
field min 1500
field max 46503.715607565
field sum 5266391.4284681
field sqrsum 162706690119.03
statistic Network3.final_Project_4_SinkA "End-to-End Delay"
field count 224
field mean 23717.810820259
field stddev 13199.358494344
field min 1500
field max 46503.715607565
field sum 5312789.623738
field sqrsum 164859482643.33
statistic Network3.final_Project_4_SinkA "End-to-End Delay"
field count 225
field mean 23824.028189614
field stddev 13265.88716494
field min 1500
field max 47616.718925197
field sum 5360406.3426632
field sqrsum 167126834564.53
statistic Network3.final_Project_4_SinkA "End-to-End Delay"
field count 226
field mean 23928.679886439
field stddev 13329.54459713
field min 1500
field max 47616.718925197
field sum 5407881.6543352
field sqrsum 169380739782.88
statistic Network3.final_Project_4_SinkA "End-to-End Delay"
field count 227
field mean 24032.086110034
field stddev 13390.961694491
field min 1500
field max 47616.718925197
field sum 5455283.5469777
field sqrsum 171627679208.97
statistic Network3.final_Project_4_SinkA "End-to-End Delay"
field count 228
field mean 24134.645231521
field stddev 13450.877210811
field min 1500
field max 47616.718925197
field sum 5502699.1127868
field sqrsum 173875915089.97
statistic Network3.final_Project_4_SinkA "End-to-End Delay"
field count 229
field mean 24240.709571898
field stddev 13516.979350747
field min 1500
field max 48423.379177796
field sum 5551122.4919646
field sqrsum 176220738740.96
statistic Network3.final_Project_4_SinkA "End-to-End Delay"
field count 230
field mean 24345.979306187
field stddev 13581.593093197
field min 1500
field max 48452.748458374
field sum 5599575.2404229
field sqrsum 178568407574.13
statistic Network3.final_Project_4_SinkA "End-to-End Delay"
field count 231
field mean 24450.57315009
field stddev 13644.954483397
field min 1500
field max 48507.157247825
field sum 5648082.3976708
field sqrsum 180921351878.4
statistic Network3.final_Project_4_SinkA "End-to-End Delay"
field count 232
field mean 24553.806238294
field stddev 13705.882987938
field min 1500
field max 48507.157247825
field sum 5696483.0472843
field sqrsum 183263974761.41
statistic Network3.final_Project_4_SinkA "End-to-End Delay"
field count 233
field mean 24661.480542154
field stddev 13774.718508517
field min 1500
field max 49641.919037704
field sum 5746124.966322
field sqrsum 185728294887.15
statistic Network3.final_Project_4_SinkA "End-to-End Delay"
field count 234
field mean 24767.645414649
field stddev 13840.734527579
field min 1500
field max 49641.919037704
field sum 5795629.0270279
field sqrsum 188178946913.53
statistic Network3.final_Project_4_SinkA "End-to-End Delay"
field count 235
field mean 24872.987957595
field stddev 13905.217779703
field min 1500
field max 49641.919037704
field sum 5845152.1700348
field sqrsum 190631488606.81
statistic Network3.final_Project_4_SinkA "End-to-End Delay"
field count 236
field mean 24974.754047476
field stddev 13963.394625371
field min 1500
field max 49641.919037704
field sum 5894041.9552044
field sqrsum 193021699700.74
statistic Network3.final_Project_4_SinkA "End-to-End Delay"
field count 237
field mean 25081.047450555
field stddev 14029.537143775
field min 1500
field max 50166.290577039
field sum 5944208.2457814
field sqrsum 195538356411
statistic Network3.final_Project_4_SinkA "End-to-End Delay"
field count 238
field mean 25184.166403651
field stddev 14090.003277064
field min 1500
field max 50166.290577039
field sum 5993831.6040689
field sqrsum 198000834098.73
statistic Network3.final_Project_4_SinkA "End-to-End Delay"
field count 239
field mean 25286.418049337
field stddev 14148.953341179
field min 1500
field max 50166.290577039
field sum 6043453.9137916
field sqrsum 200463207720.94
statistic Network3.final_Project_4_SinkA "End-to-End Delay"
field count 240
field mean 25387.825785714
field stddev 14206.452776624
field min 1500
field max 50166.290577039
field sum 6093078.1885713
field sqrsum 202925776368.35
statistic Network3.final_Project_4_SinkA "End-to-End Delay"
field count 241
field mean 25493.629270387
field stddev 14271.657753101
field min 1500
field max 50886.46559199
field sum 6143964.6541633
field sqrsum 205515208748.8
statistic Network3.final_Project_4_SinkA "End-to-End Delay"
field count 242
field mean 25598.501534107
field stddev 14335.153689168
field min 1500
field max 50886.46559199
field sum 6194837.3712538
field sqrsum 208103242092.97
statistic Network3.final_Project_4_SinkA "End-to-End Delay"
field count 243
field mean 25702.208818926
field stddev 14396.561585437
field min 1500
field max 50886.46559199
field sum 6245636.7429989
field sqrsum 210683818262.67
statistic Network3.final_Project_4_SinkA "End-to-End Delay"
field count 244
field mean 25804.75665485
field stddev 14455.932274619
field min 1500
field max 50886.46559199
field sum 6296360.6237833
field sqrsum 213256730344.5
statistic Network3.final_Project_4_SinkA "End-to-End Delay"
field count 245
field mean 25907.4489087
field stddev 14515.551090274
field min 1500
field max 50964.358848131
field sum 6347324.9826314
field sqrsum 215854096217.3
statistic Network3.final_Project_4_SinkA "End-to-End Delay"
field count 246
field mean 26009.119687886
field stddev 14573.40411525
field min 1500
field max 50964.358848131
field sum 6398243.44322
field sqrsum 218446785846.01
statistic Network3.final_Project_4_SinkA "End-to-End Delay"
field count 247
field mean 26109.688561207
field stddev 14629.386171377
field min 1500
field max 50964.358848131
field sum 6449093.0746181
field sqrsum 221032470859.33
statistic Network3.final_Project_4_SinkA "End-to-End Delay"
field count 248
field mean 26208.916815435
field stddev 14683.130981756
field min 1500
field max 50964.358848131
field sum 6499811.3702278
field sqrsum 223604816368.89
statistic Network3.final_Project_4_SinkA "End-to-End Delay"
field count 249
field mean 26312.289346697
field stddev 14744.00853243
field min 1500
field max 51948.677099693
field sum 6551760.0473275
field sqrsum 226303481421.29
statistic Network3.final_Project_4_SinkA "End-to-End Delay"
field count 250
field mean 26415.302654883
field stddev 14804.245598094
field min 1500
field max 52065.616393344
field sum 6603825.6637209
field sqrsum 229014309831.71
statistic Network3.final_Project_4_SinkA "End-to-End Delay"
field count 251
field mean 26517.622450071
field stddev 14863.271155437
field min 1500
field max 52097.571246998
field sum 6655923.2349679
field sqrsum 231728466761.55
statistic Network3.final_Project_4_SinkA "End-to-End Delay"
field count 252
field mean 26618.484368105
field stddev 14919.795929891
field min 1500
field max 52097.571246998
field sum 6707858.0607624
field sqrsum 234425692891.86
statistic Network3.final_Project_4_SinkA "End-to-End Delay"
field count 253
field mean 26722.984055137
field stddev 14982.649389377
field min 1500
field max 53056.905187264
field sum 6760914.9659496
field sqrsum 237240728079.91
statistic Network3.final_Project_4_SinkA "End-to-End Delay"
field count 254
field mean 26826.582193987
field stddev 15043.888617884
field min 1500
field max 53056.905187264
field sum 6813951.8772727
field sqrsum 240053642042.59
statistic Network3.final_Project_4_SinkA "End-to-End Delay"
field count 255
field mean 26929.593566688
field stddev 15104.087497697
field min 1500
field max 53094.4822328
field sum 6867046.3595055
field sqrsum 242872666086.16
statistic Network3.final_Project_4_SinkA "End-to-End Delay"
field count 256
field mean 27029.360541768
field stddev 15158.723598869
field min 1500
field max 53094.4822328
field sum 6919516.2986926
field sqrsum 245625760604.46
statistic Network3.final_Project_4_SinkA "End-to-End Delay"
field count 257
field mean 27132.188496104
field stddev 15218.630300716
field min 1500
field max 53456.144806096
field sum 6972972.4434987
field sqrsum 248483320021.99
statistic Network3.final_Project_4_SinkA "End-to-End Delay"
field count 258
field mean 27234.221061092
field stddev 15277.154874083
field min 1500
field max 53456.590263095
field sum 7026429.0337618
field sqrsum 251340927064.55
statistic Network3.final_Project_4_SinkA "End-to-End Delay"
field count 259
field mean 27334.758449604
field stddev 15333.126051176
field min 1500
field max 53456.590263095
field sum 7079702.4384475
field sqrsum 254178982711.36
statistic Network3.final_Project_4_SinkA "End-to-End Delay"
field count 260
field mean 27434.505397918
field stddev 15387.783209347
field min 1500
field max 53456.590263095
field sum 7132971.4034588
field sqrsum 257016565344.73
statistic Network3.final_Project_4_SinkA "End-to-End Delay"
field count 261
field mean 27537.320855311
field stddev 15447.724773191
field min 1500
field max 54269.339777352
field sum 7187240.7432361
field sqrsum 259961726584.6
statistic Network3.final_Project_4_SinkA "End-to-End Delay"
field count 262
field mean 27639.745750165
field stddev 15506.982495938
field min 1500
field max 54372.643307059
field sum 7241613.3865432
field sqrsum 262918110924.8
statistic Network3.final_Project_4_SinkA "End-to-End Delay"
field count 263
field mean 27741.028880499
field stddev 15564.273857208
field min 1500
field max 54372.643307059
field sum 7295890.5955713
field sqrsum 265864126344.67
statistic Network3.final_Project_4_SinkA "End-to-End Delay"
field count 264
field mean 27840.912618099
field stddev 15619.199589074
field min 1500
field max 54372.643307059
field sum 7350000.931178
field sqrsum 268792054764.15
statistic Network3.final_Project_4_SinkA "End-to-End Delay"
field count 265
field mean 27944.248381566
field stddev 15680.084546517
field min 1500
field max 55224.889937072
field sum 7405225.8211151
field sqrsum 271841843232.71
statistic Network3.final_Project_4_SinkA "End-to-End Delay"
field count 266
field mean 28046.262648728
field stddev 15738.662490395
field min 1500
field max 55224.889937072
field sum 7460305.8645616
field sqrsum 274875654418.78
statistic Network3.final_Project_4_SinkA "End-to-End Delay"
field count 267
field mean 28146.866408521
field stddev 15794.82862886
field min 1500
field max 55224.889937072
field sum 7515213.3310751
field sqrsum 277890484297.72
statistic Network3.final_Project_4_SinkA "End-to-End Delay"
field count 268
field mean 28246.134624737
field stddev 15848.759004701
field min 1500
field max 55224.889937072
field sum 7569964.0794295
field sqrsum 280888128743.08
statistic Network3.final_Project_4_SinkA "End-to-End Delay"
field count 269
field mean 28348.823865872
field stddev 15908.568067885
field min 1500
field max 55869.540490101
field sum 7625833.6199196
field sqrsum 284009534297.65
statistic Network3.final_Project_4_SinkA "End-to-End Delay"
field count 270
field mean 28451.111549658
field stddev 15967.67543071
field min 1500
field max 55966.498488139
field sum 7681800.1184077
field sqrsum 287141783250.67
statistic Network3.final_Project_4_SinkA "End-to-End Delay"
field count 271
field mean 28552.771940874
field stddev 16025.700547123
field min 1500
field max 56001.077569181
field sum 7737801.1959769
field sqrsum 290277903939.58
statistic Network3.final_Project_4_SinkA "End-to-End Delay"
field count 272
field mean 28653.252236541
field stddev 16081.71577356
field min 1500
field max 56001.077569181
field sum 7793684.6083391
field sqrsum 293400859716.83
statistic Network3.final_Project_4_SinkA "End-to-End Delay"
field count 273
field mean 28756.246087134
field stddev 16142.077894776
field min 1500
field max 56770.573448525
field sum 7850455.1817876
field sqrsum 296623757726.5
statistic Network3.final_Project_4_SinkA "End-to-End Delay"
field count 274
field mean 28857.960155072
field stddev 16200.214751823
field min 1500
field max 56770.573448525
field sum 7907081.0824898
field sqrsum 299830250356.83
statistic Network3.final_Project_4_SinkA "End-to-End Delay"
field count 275
field mean 28959.139227864
field stddev 16257.439949267
field min 1500
field max 56770.573448525
field sum 7963763.2876625
field sqrsum 303043122740.07
statistic Network3.final_Project_4_SinkA "End-to-End Delay"
field count 276
field mean 29059.411029097
field stddev 16313.131850785
field min 1500
field max 56770.573448525
field sum 8020397.4440307
field sqrsum 306250550407.61
statistic Network3.final_Project_4_SinkA "End-to-End Delay"
field count 277
field mean 29163.031353128
field stddev 16374.622764139
field min 1500
field max 57762.240785836
field sum 8078159.6848165
field sqrsum 309587026868.21
statistic Network3.final_Project_4_SinkA "End-to-End Delay"
field count 278
field mean 29265.141131326
field stddev 16433.467061548
field min 1500
field max 57762.240785836
field sum 8135709.2345085
field sqrsum 312898977537.96
statistic Network3.final_Project_4_SinkA "End-to-End Delay"
field count 279
field mean 29365.342979037
field stddev 16489.047257419
field min 1500
field max 57762.240785836
field sum 8192930.6911514
field sqrsum 316173272638.3
statistic Network3.final_Project_4_SinkA "End-to-End Delay"
field count 280
field mean 29464.855753305
field stddev 16543.486630374
field min 1500
field max 57762.240785836
field sum 8250159.6109253
field sqrsum 319448421896.78
statistic Network3.final_Project_4_SinkA "End-to-End Delay"
field count 281
field mean 29567.561995475
field stddev 16603.422697736
field min 1500
field max 58325.30980317
field sum 8308484.9207285
field sqrsum 322850263660.42
statistic Network3.final_Project_4_SinkA "End-to-End Delay"
field count 282
field mean 29669.95959422
field stddev 16662.816266141
field min 1500
field max 58443.684841492
field sum 8366928.60557
field sqrsum 326265927958.27
statistic Network3.final_Project_4_SinkA "End-to-End Delay"
field count 283
field mean 29770.063627957
field stddev 16718.27637014
field min 1500
field max 58443.684841492
field sum 8424928.006712
field sqrsum 329629858491.1
statistic Network3.final_Project_4_SinkA "End-to-End Delay"
field count 284
field mean 29869.237907738
field stddev 16772.191934979
field min 1500
field max 58443.684841492
field sum 8482863.5657975
field sqrsum 332986387497.65
statistic Network3.final_Project_4_SinkA "End-to-End Delay"
field count 285
field mean 29971.934779086
field stddev 16832.162702308
field min 1500
field max 59137.846242158
field sum 8542001.4120396
field sqrsum 336483672355.81
statistic Network3.final_Project_4_SinkA "End-to-End Delay"
field count 286
field mean 30072.264637106
field stddev 16888.057585224
field min 1500
field max 59137.846242158
field sum 8600667.6862122
field sqrsum 339925404081.11
statistic Network3.final_Project_4_SinkA "End-to-End Delay"
field count 287
field mean 30170.84937627
field stddev 16941.03309702
field min 1500
field max 59137.846242158
field sum 8659033.7709896
field sqrsum 343332003933.35
statistic Network3.final_Project_4_SinkA "End-to-End Delay"
field count 288
field mean 30268.211547192
field stddev 16992.017898239
field min 1500
field max 59137.846242158
field sum 8717244.9255913
field sqrsum 346720542453.4
statistic Network3.final_Project_4_SinkA "End-to-End Delay"
field count 289
field mean 30369.228657735
field stddev 17049.200277608
field min 1500
field max 59462.15649421
field sum 8776707.0820855
field sqrsum 350256290508.35
statistic Network3.final_Project_4_SinkA "End-to-End Delay"
field count 290
field mean 30469.062812118
field stddev 17104.380210713
field min 1500
field max 59462.15649421
field sum 8836028.2155142
field sqrsum 353775287379.61
statistic Network3.final_Project_4_SinkA "End-to-End Delay"
field count 291
field mean 30568.392801461
field stddev 17158.733386608
field min 1500
field max 59462.15649421
field sum 8895402.3052253
field sqrsum 357300569908.64
statistic Network3.final_Project_4_SinkA "End-to-End Delay"
field count 292
field mean 30666.278451039
field stddev 17210.70012654
field min 1500
field max 59462.15649421
field sum 8954553.3077034
field sqrsum 360799411002.8
statistic Network3.final_Project_4_SinkA "End-to-End Delay"
field count 293
field mean 30767.342730561
field stddev 17268.077074886
field min 1500
field max 60278.112350849
field sum 9014831.4200542
field sqrsum 364432861831.38
statistic Network3.final_Project_4_SinkA "End-to-End Delay"
field count 294
field mean 30867.815961658
field stddev 17324.453133545
field min 1500
field max 60306.472673125
field sum 9075137.8927274
field sqrsum 368069732477.66
statistic Network3.final_Project_4_SinkA "End-to-End Delay"
field count 295
field mean 30966.236689557
field stddev 17377.380758709
field min 1500
field max 60306.472673125
field sum 9135039.8234193
field sqrsum 371657973778.27
statistic Network3.final_Project_4_SinkA "End-to-End Delay"
field count 296
field mean 31063.368249903
field stddev 17428.205511822
field min 1500
field max 60306.472673125
field sum 9194757.0019714
field sqrsum 375224115192.5
statistic Network3.final_Project_4_SinkA "End-to-End Delay"
field count 297
field mean 31164.143917902
field stddev 17485.206437322
field min 1500
field max 60993.741645473
field sum 9255750.7436168
field sqrsum 378944351712.41
statistic Network3.final_Project_4_SinkA "End-to-End Delay"
field count 298
field mean 31263.264989739
field stddev 17539.409570387
field min 1500
field max 60993.741645473
field sum 9316452.9669422
field sqrsum 382629111629.06
statistic Network3.final_Project_4_SinkA "End-to-End Delay"
field count 299
field mean 31361.066140397
field stddev 17591.433259328
field min 1500
field max 60993.741645473
field sum 9376958.7759788
field sqrsum 386290064556.23
statistic Network3.final_Project_4_SinkA "End-to-End Delay"
field count 300
field mean 31458.19145072
field stddev 17642.379191805
field min 1500
field max 60993.741645473
field sum 9437457.4352161
field sqrsum 389950152325.73
statistic Network3.final_Project_4_SinkA "End-to-End Delay"
field count 301
field mean 31557.616147958
field stddev 17697.217242615
field min 1500
field max 61385.02531943
field sum 9498842.4605355
field sqrsum 393718273659.2
statistic Network3.final_Project_4_SinkA "End-to-End Delay"
field count 302
field mean 31656.535558109
field stddev 17751.227558314
field min 1500
field max 61431.278013505
field sum 9560273.738549
field sqrsum 397492075577.57
statistic Network3.final_Project_4_SinkA "End-to-End Delay"
field count 303
field mean 31754.400983298
field stddev 17803.502677009
field min 1500
field max 61431.278013505
field sum 9621583.4979392
field sqrsum 401250962174.06
statistic Network3.final_Project_4_SinkA "End-to-End Delay"
field count 304
field mean 31851.429898929
field stddev 17854.429730712
field min 1500
field max 61431.278013505
field sum 9682834.6892745
field sqrsum 405002670614.05
statistic Network3.final_Project_4_SinkA "End-to-End Delay"
field count 305
field mean 31951.582139512
field stddev 17910.648624718
field min 1500
field max 62397.863276795
field sum 9745232.5525513
field sqrsum 408896163955.56
statistic Network3.final_Project_4_SinkA "End-to-End Delay"
field count 306
field mean 32051.218496356
field stddev 17966.005254235
field min 1500
field max 62440.3073337
field sum 9807672.859885
field sqrsum 412794955935.49
statistic Network3.final_Project_4_SinkA "End-to-End Delay"
field count 307
field mean 32149.683729876
field stddev 18019.406353988
field min 1500
field max 62440.3073337
field sum 9869952.905072
field sqrsum 416673759963.98
statistic Network3.final_Project_4_SinkA "End-to-End Delay"
field count 308
field mean 32246.830784618
field stddev 18070.642471765
field min 1500
field max 62440.3073337
field sum 9932023.8816622
field sqrsum 420526566098.85
statistic Network3.final_Project_4_SinkA "End-to-End Delay"
field count 309
field mean 32346.990855056
field stddev 18126.990882276
field min 1500
field max 63196.292549929
field sum 9995220.1742122
field sqrsum 424520337490.91
statistic Network3.final_Project_4_SinkA "End-to-End Delay"
field count 310
field mean 32446.086356062
field stddev 18181.54509913
field min 1500
field max 63196.292549929
field sum 10058286.770379
field sqrsum 428497733042.99
statistic Network3.final_Project_4_SinkA "End-to-End Delay"
field count 311
field mean 32544.722490719
field stddev 18235.349681383
field min 1500
field max 63196.292549929
field sum 10121408.694614
field sqrsum 432482110362.07
statistic Network3.final_Project_4_SinkA "End-to-End Delay"
field count 312
field mean 32641.497874103
field stddev 18286.081711365
field min 1500
field max 63196.292549929
field sum 10184147.33672
field sqrsum 436418247575.41
statistic Network3.final_Project_4_SinkA "End-to-End Delay"
field count 313
field mean 32741.779070478
field stddev 18342.755483132
field min 1500
field max 64029.512339473
field sum 10248176.849059
field sqrsum 440518026025.84
statistic Network3.final_Project_4_SinkA "End-to-End Delay"
field count 314
field mean 32841.10635503
field stddev 18397.815979561
field min 1500
field max 64029.512339473
field sum 10312107.39548
field sqrsum 444605140791.41
statistic Network3.final_Project_4_SinkA "End-to-End Delay"
field count 315
field mean 32939.691564117
field stddev 18451.644124324
field min 1500
field max 64029.512339473
field sum 10376002.842697
field sqrsum 448687768966.53
statistic Network3.final_Project_4_SinkA "End-to-End Delay"
field count 316
field mean 33036.86915608
field stddev 18503.147745493
field min 1500
field max 64029.512339473
field sum 10439650.653321
field sqrsum 452738812763.79
statistic Network3.final_Project_4_SinkA "End-to-End Delay"
field count 317
field mean 33137.438868279
field stddev 18560.421894922
field min 1500
field max 64917.467923114
field sum 10504568.121244
field sqrsum 456953090405.34
statistic Network3.final_Project_4_SinkA "End-to-End Delay"
field count 318
field mean 33237.627752553
field stddev 18617.05047507
field min 1500
field max 64997.504067399
field sum 10569565.625312
field sqrsum 461177765940.33
statistic Network3.final_Project_4_SinkA "End-to-End Delay"
field count 319
field mean 33337.170777951
field stddev 18672.588465468
field min 1500
field max 64997.504067399
field sum 10634557.478166
field sqrsum 465401706877.8
statistic Network3.final_Project_4_SinkA "End-to-End Delay"
field count 320
field mean 33435.658651454
field stddev 18726.358965574
field min 1500
field max 64997.504067399
field sum 10699410.768465
field sqrsum 469607656140.4
statistic Network3.final_Project_4_SinkA "End-to-End Delay"
field count 321
field mean 33537.015018838
field stddev 18785.055904159
field min 1500
field max 65971.052581668
field sum 10765381.821047
field sqrsum 473959835919.13
statistic Network3.final_Project_4_SinkA "End-to-End Delay"
field count 322
field mean 33636.960075198
field stddev 18841.323692866
field min 1500
field max 65971.052581668
field sum 10831101.144214
field sqrsum 478278865356.64
statistic Network3.final_Project_4_SinkA "End-to-End Delay"
field count 323
field mean 33735.393644863
field stddev 18895.04192152
field min 1500
field max 65971.052581668
field sum 10896532.147291
field sqrsum 482560081520.32
statistic Network3.final_Project_4_SinkA "End-to-End Delay"
field count 324
field mean 33831.809687095
field stddev 18945.426817498
field min 1500
field max 65971.052581668
field sum 10961506.338619
field sqrsum 486781727059.02
statistic Network3.final_Project_4_SinkA "End-to-End Delay"
field count 325
field mean 33931.528704913
field stddev 19001.398710356
field min 1500
field max 66240.490477899
field sum 11027746.829097
field sqrsum 491169529637.77
statistic Network3.final_Project_4_SinkA "End-to-End Delay"
field count 326
field mean 34030.934303733
field stddev 19056.851271778
field min 1500
field max 66337.753920446
field sum 11094084.583017
field sqrsum 495570227232.98
statistic Network3.final_Project_4_SinkA "End-to-End Delay"
field count 327
field mean 34129.50651394
field stddev 19110.90973361
field min 1500
field max 66337.753920446
field sum 11160348.630058
field sqrsum 499961151163.27
statistic Network3.final_Project_4_SinkA "End-to-End Delay"
field count 328
field mean 34227.244483253
field stddev 19163.591996079
field min 1500
field max 66337.753920446
field sum 11226536.190507
field sqrsum 504341944321.42
statistic Network3.final_Project_4_SinkA "End-to-End Delay"
field count 329
field mean 34328.161741008
field stddev 19221.712891431
field min 1500
field max 67429.022284535
field sum 11293965.212792
field sqrsum 508888617367.67
statistic Network3.final_Project_4_SinkA "End-to-End Delay"
field count 330
field mean 34428.647897172
field stddev 19279.092010685
field min 1500
field max 67488.593275255
field sum 11361453.806067
field sqrsum 513443327589.94
statistic Network3.final_Project_4_SinkA "End-to-End Delay"
field count 331
field mean 34526.525684946
field stddev 19332.047893603
field min 1500
field max 67488.593275255
field sum 11428280.001717
field sqrsum 517909068015.02
statistic Network3.final_Project_4_SinkA "End-to-End Delay"
field count 332
field mean 34623.526550968
field stddev 19383.571180188
field min 1500
field max 67488.593275255
field sum 11495010.814921
field sqrsum 522362069445.94
statistic Network3.final_Project_4_SinkA "End-to-End Delay"
field count 333
field mean 34723.552782703
field stddev 19440.238776411
field min 1500
field max 67932.261718655
field sum 11562943.07664
field sqrsum 526976861628.15
statistic Network3.final_Project_4_SinkA "End-to-End Delay"
field count 334
field mean 34821.405561133
field stddev 19493.231790948
field min 1500
field max 67932.261718655
field sum 11630349.457418
field sqrsum 531520481797.79
statistic Network3.final_Project_4_SinkA "End-to-End Delay"
field count 335
field mean 34918.064847984
field stddev 19544.265494142
field min 1500
field max 67932.261718655
field sum 11697551.724075
field sqrsum 536036626441.53
statistic Network3.final_Project_4_SinkA "End-to-End Delay"
field count 336
field mean 35013.935503601
field stddev 19594.037799537
field min 1500
field max 67932.261718655
field sum 11764682.32921
field sqrsum 540543144587.36
statistic Network3.final_Project_4_SinkA "End-to-End Delay"
field count 337
field mean 35112.9128357
field stddev 19649.048426716
field min 1500
field max 68369.296420951
field sum 11833051.625631
field sqrsum 545217505280.46
statistic Network3.final_Project_4_SinkA "End-to-End Delay"
field count 338
field mean 35211.119514624
field stddev 19702.77415622
field min 1500
field max 68369.296420951
field sum 11901358.395943
field sqrsum 549883320150.91
statistic Network3.final_Project_4_SinkA "End-to-End Delay"
field count 339
field mean 35308.410620939
field stddev 19754.989633249
field min 1500
field max 68369.296420951
field sum 11969551.200498
field sqrsum 554533578744.06
statistic Network3.final_Project_4_SinkA "End-to-End Delay"
field count 340
field mean 35404.376491357
field stddev 19805.040255491
field min 1500
field max 68369.296420951
field sum 12037488.007061
field sqrsum 559148988430.03
statistic Network3.final_Project_4_SinkA "End-to-End Delay"
field count 341
field mean 35503.261348072
field stddev 19860.018752724
field min 1500
field max 69124.112631265
field sum 12106612.119693
field sqrsum 563927131377.09
statistic Network3.final_Project_4_SinkA "End-to-End Delay"
field count 342
field mean 35601.049565493
field stddev 19913.163336979
field min 1500
field max 69124.112631265
field sum 12175558.951399
field sqrsum 568680796979.37
statistic Network3.final_Project_4_SinkA "End-to-End Delay"
field count 343
field mean 35697.129012338
field stddev 19963.49017443
field min 1500
field max 69124.112631265
field sum 12244115.251232
field sqrsum 573380763226.2
statistic Network3.final_Project_4_SinkA "End-to-End Delay"
field count 344
field mean 35791.774756185
field stddev 20011.509238309
field min 1500
field max 69124.112631265
field sum 12312370.516128
field sqrsum 578039544412.18
statistic Network3.final_Project_4_SinkA "End-to-End Delay"
field count 345
field mean 35889.141036399
field stddev 20064.073341399
field min 1500
field max 69383.141430214
field sum 12381753.657558
field sqrsum 582853564726.91
statistic Network3.final_Project_4_SinkA "End-to-End Delay"
field count 346
field mean 35986.289282291
field stddev 20116.303102894
field min 1500
field max 69502.43411506
field sum 12451256.091673
field sqrsum 587684153074.83
statistic Network3.final_Project_4_SinkA "End-to-End Delay"
field count 347
field mean 36082.95444278
field stddev 20167.759364957
field min 1500
field max 69529.099971897
field sum 12520785.191645
field sqrsum 592518448817.73
statistic Network3.final_Project_4_SinkA "End-to-End Delay"
field count 348
field mean 36179.092517711
field stddev 20218.376812693
field min 1500
field max 69539.00451858
field sum 12590324.196163
field sqrsum 597354121967.16
statistic Network3.final_Project_4_SinkA "End-to-End Delay"
[...]
field count 1344
field mean 680914.65500909
field stddev 65252.546844401
field min 581605.79393058
field max 798695.43667525
field sum 915149296.33221
field sqrsum 6.2885692020384e+014
statistic Network3.final_Project_4_SinkC "End-to-End Delay"
field count 1345
field mean 680839.75791937
field stddev 65286.075622879
field min 580178.06933421
field max 798695.43667525
field sum 915729474.40155
field sqrsum 6.2919352679597e+014
statistic Network3.final_Project_4_SinkC "End-to-End Delay"
field count 1346
field mean 680765.78540245
field stddev 65318.205097686
field min 580178.06933421
field max 798695.43667525
field sum 916310747.1517
field sqrsum 6.2953140480604e+014
statistic Network3.final_Project_4_SinkC "End-to-End Delay"
field count 1347
field mean 680691.65629913
field stddev 65350.593805508
field min 580178.06933421
field max 798695.43667525
field sum 916891661.03493
field sqrsum 6.2986886574578e+014
statistic Network3.final_Project_4_SinkC "End-to-End Delay"
field count 1348
field mean 680617.41669971
field stddev 65383.171458585
field min 580178.06933421
field max 798695.43667525
field sum 917472277.7112
field sqrsum 6.3020598147054e+014
statistic Network3.final_Project_4_SinkC "End-to-End Delay"
field count 1349
field mean 680543.09015505
field stddev 65415.902030556
field min 580178.06933421
field max 798695.43667525
field sum 918052628.61916
field sqrsum 6.3054278864691e+014
statistic Network3.final_Project_4_SinkC "End-to-End Delay"
field count 1350
field mean 680469.34873321
field stddev 65447.758613187
field min 580178.06933421
field max 798695.43667525
field sum 918633620.78983
field sqrsum 6.3088034054928e+014
statistic Network3.final_Project_4_SinkC "End-to-End Delay"
field count 1351
field mean 680395.45023778
field stddev 65479.874817678
field min 580178.06933421
field max 798695.43667525
field sum 919214253.27123
field sqrsum 6.3121747462775e+014
statistic Network3.final_Project_4_SinkC "End-to-End Delay"
field count 1352
field mean 680321.34900913
field stddev 65512.320733762
field min 580178.06933421
field max 798695.43667525
field sum 919794463.86035
field sqrsum 6.3155411895547e+014
statistic Network3.final_Project_4_SinkC "End-to-End Delay"
field count 1353
field mean 680246.67363219
field stddev 65545.66803006
field min 579285.56401105
field max 798695.43667525
field sum 920373749.42436
field sqrsum 6.3188969072014e+014
statistic Network3.final_Project_4_SinkC "End-to-End Delay"
field count 1354
field mean 680172.87958383
field stddev 65577.683309112
field min 579285.56401105
field max 798695.43667525
field sum 920954078.95651
field sqrsum 6.3222647308602e+014
statistic Network3.final_Project_4_SinkC "End-to-End Delay"
field count 1355
field mean 680099.17646801
field stddev 65609.58021149
field min 579285.56401105
field max 798695.43667525
field sum 921534384.11415
field sqrsum 6.3256322716201e+014
statistic Network3.final_Project_4_SinkC "End-to-End Delay"
field count 1356
field mean 680024.81688788
field stddev 65642.501256014
field min 579267.58582003
field max 798695.43667525
field sum 922113651.69997
field sqrsum 6.3289877809799e+014
statistic Network3.final_Project_4_SinkC "End-to-End Delay"
field count 1357
field mean 679950.25768001
field stddev 65675.748596421
field min 578847.97180702
field max 798695.43667525
field sum 922692499.67178
field sqrsum 6.3323384307246e+014
statistic Network3.final_Project_4_SinkC "End-to-End Delay"
field count 1358
field mean 679876.57127722
field stddev 65707.677699623
field min 578847.97180702
field max 798695.43667525
field sum 923272383.79447
field sqrsum 6.3357010866821e+014
statistic Network3.final_Project_4_SinkC "End-to-End Delay"
field count 1359
field mean 679802.97653016
field stddev 65739.48736894
field min 578847.97180702
field max 798695.43667525
field sum 923852245.10448
field sqrsum 6.3390634780706e+014
statistic Network3.final_Project_4_SinkC "End-to-End Delay"
field count 1360
field mean 679729.20781371
field stddev 65771.582277078
field min 578847.97180702
field max 798695.43667525
field sum 924431722.62664
field sqrsum 6.3424214200574e+014
statistic Network3.final_Project_4_SinkC "End-to-End Delay"
field count 1361
field mean 679655.44156631
field stddev 65803.693298261
field min 578847.97180702
field max 798695.43667525
field sum 925011055.97175
field sqrsum 6.345777691305e+014
statistic Network3.final_Project_4_SinkC "End-to-End Delay"
field count 1362
field mean 679581.88288111
field stddev 65835.507848438
field min 578847.97180702
field max 798695.43667525
field sum 925590524.48407
field sqrsum 6.3491355288727e+014
statistic Network3.final_Project_4_SinkC "End-to-End Delay"
field count 1363
field mean 679508.02421277
field stddev 65867.800047656
field min 578847.97180702
field max 798695.43667525
field sum 926169437.002
field sqrsum 6.3524869259069e+014
statistic Network3.final_Project_4_SinkC "End-to-End Delay"
field count 1364
field mean 679434.28246015
field stddev 65899.933261439
field min 578847.97180702
field max 798695.43667525
field sum 926748361.27564
field sqrsum 6.355838459053e+014
statistic Network3.final_Project_4_SinkC "End-to-End Delay"
field count 1365
field mean 679360.04100295
field stddev 65932.851680908
field min 578094.69338409
field max 798695.43667525
field sum 927326455.96903
field sqrsum 6.3591803937982e+014
statistic Network3.final_Project_4_SinkC "End-to-End Delay"
field count 1366
field mean 679286.84169802
field stddev 65964.198084917
field min 578094.69338409
field max 798695.43667525
field sum 927905825.75949
field sqrsum 6.3625370873392e+014
statistic Network3.final_Project_4_SinkC "End-to-End Delay"
field count 1367
field mean 679213.44725146
field stddev 65995.861197322
field min 578094.69338409
field max 798695.43667525
field sum 928484782.39275
field sqrsum 6.3658889951712e+014
statistic Network3.final_Project_4_SinkC "End-to-End Delay"
field count 1368
field mean 679140.14739731
field stddev 66027.400669846
field min 578094.69338409
field max 798695.43667525
field sum 929063721.63952
field sqrsum 6.3692407016857e+014
statistic Network3.final_Project_4_SinkC "End-to-End Delay"
field count 1369
field mean 679066.67003714
field stddev 66059.23030933
field min 578094.69338409
field max 798695.43667525
field sum 929642271.28085
field sqrsum 6.3725878985605e+014
statistic Network3.final_Project_4_SinkC "End-to-End Delay"
field count 1370
field mean 678993.90725035
field stddev 66089.996751283
field min 578094.69338409
field max 798695.43667525
field sum 930221652.93298
field sqrsum 6.3759447295488e+014
statistic Network3.final_Project_4_SinkC "End-to-End Delay"
field count 1371
field mean 678920.68923474
field stddev 66121.473024177
field min 578094.69338409
field max 798695.43667525
field sum 930800264.94083
field sqrsum 6.379292648105e+014
statistic Network3.final_Project_4_SinkC "End-to-End Delay"
field count 1372
field mean 678847.07601272
field stddev 66153.571222274
field min 577923.34862174
field max 798695.43667525
field sum 931378188.28945
field sqrsum 6.3826326020738e+014
statistic Network3.final_Project_4_SinkC "End-to-End Delay"
field count 1373
field mean 678773.37919801
field stddev 66185.816696831
field min 577661.34942295
field max 798695.43667525
field sum 931955849.63887
field sqrsum 6.38596952842e+014
statistic Network3.final_Project_4_SinkC "End-to-End Delay"
field count 1374
field mean 678700.22475122
field stddev 66217.255220966
field min 577661.34942295
field max 798695.43667525
field sum 932534108.80818
field sqrsum 6.3893133650888e+014
statistic Network3.final_Project_4_SinkC "End-to-End Delay"
field count 1375
field mean 678626.36940338
field stddev 66249.783164522
field min 577149.12146558
field max 798695.43667525
field sum 933111257.92964
field sqrsum 6.3926443761729e+014
statistic Network3.final_Project_4_SinkC "End-to-End Delay"
field count 1376
field mean 678551.87377714
field stddev 66283.316091511
field min 576120.38769763
field max 798695.43667525
field sum 933687378.31734
field sqrsum 6.3959635231841e+014
statistic Network3.final_Project_4_SinkC "End-to-End Delay"
field count 1377
field mean 678477.44500258
field stddev 66316.763681578
field min 576063.45120868
field max 798695.43667525
field sum 934263441.76855
field sqrsum 6.3992820141823e+014
statistic Network3.final_Project_4_SinkC "End-to-End Delay"
field count 1378
field mean 678403.95744027
field stddev 66348.783634304
field min 576063.45120868
field max 798695.43667525
field sum 934840653.35269
field sqrsum 6.4026137463109e+014
statistic Network3.final_Project_4_SinkC "End-to-End Delay"
field count 1379
field mean 678330.23923307
field stddev 66381.175719739
field min 576063.45120868
field max 798695.43667525
field sum 935417399.90241
field sqrsum 6.4059401121371e+014
statistic Network3.final_Project_4_SinkC "End-to-End Delay"
field count 1380
field mean 678255.05568997
field stddev 66415.853732564
field min 574576.9497534
field max 798695.43667525
field sum 935991976.85216
field sqrsum 6.409241498849e+014
statistic Network3.final_Project_4_SinkC "End-to-End Delay"
field count 1381
field mean 678179.96572517
field stddev 66450.402369318
field min 574555.81429773
field max 798695.43667525
field sum 936566532.66646
field sqrsum 6.4125426426864e+014
statistic Network3.final_Project_4_SinkC "End-to-End Delay"
field count 1382
field mean 678105.87775029
field stddev 66483.414307967
field min 574555.81429773
field max 798695.43667525
field sum 937142323.0509
field sqrsum 6.4158579883546e+014
statistic Network3.final_Project_4_SinkC "End-to-End Delay"
field count 1383
field mean 678031.04159183
field stddev 66517.602976537
field min 574555.81429773
field max 798695.43667525
field sum 937716930.5215
field sqrsum 6.4191597258073e+014
statistic Network3.final_Project_4_SinkC "End-to-End Delay"
field count 1384
field mean 677955.53078734
field stddev 66552.863492718
field min 573524.08816944
field max 798695.43667525
field sum 938290454.60967
field sqrsum 6.4224490246044e+014
statistic Network3.final_Project_4_SinkC "End-to-End Delay"
field count 1385
field mean 677879.20145178
field stddev 66589.432581837
field min 572239.40104276
field max 798695.43667525
field sum 938862694.01072
field sqrsum 6.4257236039255e+014
statistic Network3.final_Project_4_SinkC "End-to-End Delay"
field count 1386
field mean 677801.64776431
field stddev 66627.975937824
field min 570389.79061506
field max 798695.43667525
field sum 939433083.80133
field sqrsum 6.4289770490578e+014
scalar Network3.SourceA created:last 1221
attr interpolationmode none
attr title "the number of jobs created, last"
scalar Network3.SourceB created:last 2518
attr interpolationmode none
attr title "the number of jobs created, last"
scalar Network3.SourceC created:last 1387
attr interpolationmode none
attr title "the number of jobs created, last"
scalar Network3.passiveQueue queueingTime:mean 127313.47867868
attr interpolationmode none
attr title "queueing time at dequeue, mean"
attr unit s
scalar Network3.passiveQueue queueingTime:max 255980.00305988
attr interpolationmode none
attr title "queueing time at dequeue, max"
attr unit s
scalar Network3.passiveQueue queueLength:timeavg 80.566725773596
attr interpolationmode sample-hold
attr title "queue length, timeavg"
scalar Network3.passiveQueue queueLength:max 682
attr interpolationmode sample-hold
attr title "queue length, max"
scalar Network3.passiveQueue dropped:count 0
attr interpolationmode none
attr title "drop event, count"
scalar Network3.passiveQueue1 queueingTime:mean 527270.91939915
attr interpolationmode none
attr title "queueing time at dequeue, mean"
attr unit s
scalar Network3.passiveQueue1 queueingTime:max 796692.81224047
attr interpolationmode none
attr title "queueing time at dequeue, max"
attr unit s
scalar Network3.passiveQueue1 queueLength:timeavg 690.36743346766
attr interpolationmode sample-hold
attr title "queue length, timeavg"
scalar Network3.passiveQueue1 queueLength:max 2127
attr interpolationmode sample-hold
attr title "queue length, max"
scalar Network3.passiveQueue1 dropped:count 0
attr interpolationmode none
attr title "drop event, count"
scalar Network3.passiveQueue2 queueingTime:mean 676224.21441793
attr interpolationmode none
attr title "queueing time at dequeue, mean"
attr unit s
scalar Network3.passiveQueue2 queueingTime:max 797195.43667525
attr interpolationmode none
attr title "queueing time at dequeue, max"
attr unit s
scalar Network3.passiveQueue2 queueLength:timeavg 487.70581112737
attr interpolationmode sample-hold
attr title "queue length, timeavg"
scalar Network3.passiveQueue2 queueLength:max 1387
attr interpolationmode sample-hold
attr title "queue length, max"
scalar Network3.passiveQueue2 dropped:count 0
attr interpolationmode none
attr title "drop event, count"
scalar Network3.final_Project_4_SinkA generation:mean 0
attr interpolationmode none
attr title "the generation of the arrived jobs, mean"
scalar Network3.final_Project_4_SinkA generation:max 0
attr interpolationmode none
attr title "the generation of the arrived jobs, max"
scalar Network3.final_Project_4_SinkA delaysVisited:mean 0
attr interpolationmode none
attr title "the total number of delays visited by arrived jobs, mean"
scalar Network3.final_Project_4_SinkA delaysVisited:max 0
attr interpolationmode none
attr title "the total number of delays visited by arrived jobs, max"
scalar Network3.final_Project_4_SinkA queuesVisited:mean 1.993447993448
attr interpolationmode none
attr title "the total number of queues visited by arrived jobs, mean"
scalar Network3.final_Project_4_SinkA queuesVisited:max 2
attr interpolationmode none
attr title "the total number of queues visited by arrived jobs, max"
scalar Network3.final_Project_4_SinkA totalServiceTime:mean 1500
attr interpolationmode none
attr title "the total time spent  by arrived jobs, mean"
attr unit s
scalar Network3.final_Project_4_SinkA totalServiceTime:max 1500
attr interpolationmode none
attr title "the total time spent  by arrived jobs, max"
attr unit s
scalar Network3.final_Project_4_SinkA totalDelayTime:mean 0
attr interpolationmode none
attr title "the total time spent in delay nodes by arrived jobs, mean"
attr unit s
scalar Network3.final_Project_4_SinkA totalDelayTime:max 0
attr interpolationmode none
attr title "the total time spent in delay nodes by arrived jobs, max"
attr unit s
scalar Network3.final_Project_4_SinkA totalQueueingTime:mean 126896.39930545
attr interpolationmode none
attr title "the total time spent in queues by arrived jobs, mean"
attr unit s
scalar Network3.final_Project_4_SinkA totalQueueingTime:max 255980.00305988
attr interpolationmode none
attr title "the total time spent in queues by arrived jobs, max"
attr unit s
scalar Network3.final_Project_4_SinkA lifeTime:mean 128396.39930545
attr interpolationmode none
attr title "lifetime of arrived jobs, mean"
attr unit s
scalar Network3.final_Project_4_SinkA lifeTime:max 257480.00305988
attr interpolationmode none
attr title "lifetime of arrived jobs, max"
attr unit s
scalar Network3.final_Project_4_SinkB generation:mean 0
attr interpolationmode none
attr title "the generation of the arrived jobs, mean"
scalar Network3.final_Project_4_SinkB generation:max 0
attr interpolationmode none
attr title "the generation of the arrived jobs, max"
scalar Network3.final_Project_4_SinkB delaysVisited:mean 0
attr interpolationmode none
attr title "the total number of delays visited by arrived jobs, mean"
scalar Network3.final_Project_4_SinkB delaysVisited:max 0
attr interpolationmode none
attr title "the total number of delays visited by arrived jobs, max"
scalar Network3.final_Project_4_SinkB queuesVisited:mean 2
attr interpolationmode none
attr title "the total number of queues visited by arrived jobs, mean"
scalar Network3.final_Project_4_SinkB queuesVisited:max 2
attr interpolationmode none
attr title "the total number of queues visited by arrived jobs, max"
scalar Network3.final_Project_4_SinkB totalServiceTime:mean 1500
attr interpolationmode none
attr title "the total time spent  by arrived jobs, mean"
attr unit s
scalar Network3.final_Project_4_SinkB totalServiceTime:max 1500
attr interpolationmode none
attr title "the total time spent  by arrived jobs, max"
attr unit s
scalar Network3.final_Project_4_SinkB totalDelayTime:mean 0
attr interpolationmode none
attr title "the total time spent in delay nodes by arrived jobs, mean"
attr unit s
scalar Network3.final_Project_4_SinkB totalDelayTime:max 0
attr interpolationmode none
attr title "the total time spent in delay nodes by arrived jobs, max"
attr unit s
scalar Network3.final_Project_4_SinkB totalQueueingTime:mean 527270.91939915
attr interpolationmode none
attr title "the total time spent in queues by arrived jobs, mean"
attr unit s
scalar Network3.final_Project_4_SinkB totalQueueingTime:max 796692.81224047
attr interpolationmode none
attr title "the total time spent in queues by arrived jobs, max"
attr unit s
scalar Network3.final_Project_4_SinkB lifeTime:mean 528770.91939915
attr interpolationmode none
attr title "lifetime of arrived jobs, mean"
attr unit s
scalar Network3.final_Project_4_SinkB lifeTime:max 798192.81224047
attr interpolationmode none
attr title "lifetime of arrived jobs, max"
attr unit s
scalar Network3.final_Project_4_SinkC generation:mean 0
attr interpolationmode none
attr title "the generation of the arrived jobs, mean"
scalar Network3.final_Project_4_SinkC generation:max 0
attr interpolationmode none
attr title "the generation of the arrived jobs, max"
scalar Network3.final_Project_4_SinkC delaysVisited:mean 0
attr interpolationmode none
attr title "the total number of delays visited by arrived jobs, mean"
scalar Network3.final_Project_4_SinkC delaysVisited:max 0
attr interpolationmode none
attr title "the total number of delays visited by arrived jobs, max"
scalar Network3.final_Project_4_SinkC queuesVisited:mean 2
attr interpolationmode none
attr title "the total number of queues visited by arrived jobs, mean"
scalar Network3.final_Project_4_SinkC queuesVisited:max 2
attr interpolationmode none
attr title "the total number of queues visited by arrived jobs, max"
scalar Network3.final_Project_4_SinkC totalServiceTime:mean 1500
attr interpolationmode none
attr title "the total time spent  by arrived jobs, mean"
attr unit s
scalar Network3.final_Project_4_SinkC totalServiceTime:max 1500
attr interpolationmode none
attr title "the total time spent  by arrived jobs, max"
attr unit s
scalar Network3.final_Project_4_SinkC totalDelayTime:mean 0
attr interpolationmode none
attr title "the total time spent in delay nodes by arrived jobs, mean"
attr unit s
scalar Network3.final_Project_4_SinkC totalDelayTime:max 0
attr interpolationmode none
attr title "the total time spent in delay nodes by arrived jobs, max"
attr unit s
scalar Network3.final_Project_4_SinkC totalQueueingTime:mean 676224.21441793
attr interpolationmode none
attr title "the total time spent in queues by arrived jobs, mean"
attr unit s
scalar Network3.final_Project_4_SinkC totalQueueingTime:max 797195.43667525
attr interpolationmode none
attr title "the total time spent in queues by arrived jobs, max"
attr unit s
scalar Network3.final_Project_4_SinkC lifeTime:mean 677724.21441793
attr interpolationmode none
attr title "lifetime of arrived jobs, mean"
attr unit s
scalar Network3.final_Project_4_SinkC lifeTime:max 798695.43667525
attr interpolationmode none
attr title "lifetime of arrived jobs, max"
attr unit s
scalar Network3.server busy:timeavg 0.99993100648907
attr interpolationmode sample-hold
attr title "server busy state, timeavg"
scalar Network3.server1 busy:timeavg 0.99993100648907
attr interpolationmode sample-hold
attr title "server busy state, timeavg"
scalar Network3.server2 busy:timeavg 0.99915102910492
attr interpolationmode sample-hold
attr title "server busy state, timeavg"
scalar Network3.server3 busy:timeavg 0.99915102910492
attr interpolationmode sample-hold
attr title "server busy state, timeavg"

